@<TRIPOS>MOLECULE
*****
 32 34 0 0 0
SMALL
GASTEIGER

@<TRIPOS>ATOM
      1 C5'         8.5610   -1.4860    3.2370 C.3   501  3D1501501    0.0730
      2 O5'         8.2247   -2.2455    4.4050 O.3   501  3D1501501   -0.3924
      3 C4'         8.9980   -2.3440    2.0460 C.3   501  3D1501501    0.1126
      4 O4'         7.8980   -3.1870    1.5730 O.3   501  3D1501501   -0.3457
      5 C3'         9.3860   -1.5720    0.7720 C.3   501  3D1501501    0.1135
      6 O3'        10.7180   -1.0980    0.8440 O.3   501  3D1501501   -0.3864
      7 C2'         9.2450   -2.6510   -0.3450 C.3   501  3D1501501    0.1285
      8 C1'         8.1610   -3.5760    0.1520 C.3   501  3D1501501    0.1667
      9 N1          4.7893   -0.2754   -1.8395 N.ar  501  3D1501501   -0.2188
     10 C2          6.0067   -0.0827   -1.2943 C.ar  501  3D1501501    0.1205
     11 N3          6.8208   -1.0098   -0.7904 N.ar  501  3D1501501   -0.2159
     12 C4          6.2750   -2.2388   -0.8625 C.ar  501  3D1501501    0.1674
     13 C5          5.0597   -2.5902   -1.3910 C.ar  501  3D1501501    0.1473
     14 C6          4.3007   -1.5439   -1.9761 C.ar  501  3D1501501    0.1472
     15 N6          3.1825   -1.7467   -2.6859 N.pl3 501  3D1501501   -0.3413
     16 N7          4.8219   -3.9511   -1.2775 N.ar  501  3D1501501   -0.2306
     17 C8          5.8948   -4.4176   -0.6749 C.ar  501  3D1501501    0.1004
     18 N9          6.8170   -3.4220   -0.4010 N.ar  501  3D1501501   -0.2855
     19 H5*1        7.7027   -0.9171    2.9460 H       1  A11         0.0584
     20 H5*2        9.3940   -0.8669    3.4972 H       1  A11         0.0584
     21 H5*         7.4700   -2.8224    4.2093 H       1  A11         0.2095
     22 H4*         9.8413   -2.8665    2.4469 H       1  A11         0.0647
     23 H3*         8.7814   -0.7045    0.6081 H       1  A11         0.0647
     24 H3*        11.3192   -1.8445    0.9929 H       1  A11         0.2100
     25 H2*         8.9601   -2.1994   -1.2723 H       1  A11         0.0665
     26 O2*        10.1645   -3.1663   -0.5291 O.3     1  A11        -0.3847
     27 H1*         8.5360   -4.5488   -0.0885 H       1  A11         0.0866
     28 H2          6.3464    0.8914   -1.2635 H       1  A11         0.1048
     29 H61         2.6967   -0.9808   -3.0688 H       1  A11         0.1438
     30 H62         2.8466   -2.6617   -2.8245 H       1  A11         0.1438
     31 H8          6.0328   -5.4115   -0.4341 H       1  A11         0.1030
     32 H2*        10.4644   -3.5945    0.2880 H       1  A11         0.2101
@<TRIPOS>BOND
     1    15    14    1
     2    14     9   ar
     3    14    13   ar
     4     9    10   ar
     5    13    16   ar
     6    13    12   ar
     7    16    17   ar
     8    10    11   ar
     9    12    11   ar
    10    12    18   ar
    11    17    18   ar
    12    18     8    1
    13     7     8    1
    14     7     5    1
    15     8     4    1
    16     5     6    1
    17     5     3    1
    18     4     3    1
    19     3     1    1
    20     2     1    1
    21     1    19    1
    22     1    20    1
    23     2    21    1
    24     3    22    1
    25     5    23    1
    26     6    24    1
    27     7    25    1
    28     7    26    1
    29     8    27    1
    30    10    28    1
    31    15    29    1
    32    15    30    1
    33    17    31    1
    34    26    32    1
@<TRIPOS>MOLECULE
*****
 32 34 0 0 0
SMALL
GASTEIGER

@<TRIPOS>ATOM
      1 C5'         8.5610   -1.4860    3.2370 C.3   501  3D1501501    0.0730
      2 O5'         7.4225   -0.6582    2.9672 O.3   501  3D1501501   -0.3924
      3 C4'         8.9980   -2.3440    2.0460 C.3   501  3D1501501    0.1126
      4 O4'         7.8980   -3.1870    1.5730 O.3   501  3D1501501   -0.3457
      5 C3'         9.3860   -1.5720    0.7720 C.3   501  3D1501501    0.1135
      6 O3'        10.7180   -1.0980    0.8440 O.3   501  3D1501501   -0.3864
      7 C2'         9.2450   -2.6510   -0.3450 C.3   501  3D1501501    0.1285
      8 C1'         8.1610   -3.5760    0.1520 C.3   501  3D1501501    0.1667
      9 N1          4.7893   -0.2754   -1.8395 N.ar  501  3D1501501   -0.2188
     10 C2          6.0067   -0.0827   -1.2943 C.ar  501  3D1501501    0.1205
     11 N3          6.8208   -1.0098   -0.7904 N.ar  501  3D1501501   -0.2159
     12 C4          6.2750   -2.2388   -0.8625 C.ar  501  3D1501501    0.1674
     13 C5          5.0597   -2.5902   -1.3910 C.ar  501  3D1501501    0.1473
     14 C6          4.3007   -1.5439   -1.9761 C.ar  501  3D1501501    0.1472
     15 N6          3.1825   -1.7467   -2.6859 N.pl3 501  3D1501501   -0.3413
     16 N7          4.8219   -3.9511   -1.2775 N.ar  501  3D1501501   -0.2306
     17 C8          5.8948   -4.4176   -0.6749 C.ar  501  3D1501501    0.1004
     18 N9          6.8170   -3.4220   -0.4010 N.ar  501  3D1501501   -0.2855
     19 H5*1        9.3787   -0.8546    3.5159 H       1  A11         0.0584
     20 H5*2        8.2781   -2.1594    4.0189 H       1  A11         0.0584
     21 H5*         7.6394   -0.0305    2.2602 H       1  A11         0.2095
     22 H4*         9.8413   -2.8665    2.4469 H       1  A11         0.0647
     23 H3*         8.7814   -0.7045    0.6081 H       1  A11         0.0647
     24 H3*        11.3192   -1.8445    0.9929 H       1  A11         0.2100
     25 H2*         8.9601   -2.1994   -1.2723 H       1  A11         0.0665
     26 O2*        10.1645   -3.1663   -0.5291 O.3     1  A11        -0.3847
     27 H1*         8.5360   -4.5488   -0.0885 H       1  A11         0.0866
     28 H2          6.3464    0.8914   -1.2635 H       1  A11         0.1048
     29 H61         2.6967   -0.9808   -3.0688 H       1  A11         0.1438
     30 H62         2.8466   -2.6617   -2.8245 H       1  A11         0.1438
     31 H8          6.0328   -5.4115   -0.4341 H       1  A11         0.1030
     32 H2*        10.4644   -3.5945    0.2880 H       1  A11         0.2101
@<TRIPOS>BOND
     1    15    14    1
     2    14     9   ar
     3    14    13   ar
     4     9    10   ar
     5    13    16   ar
     6    13    12   ar
     7    16    17   ar
     8    10    11   ar
     9    12    11   ar
    10    12    18   ar
    11    17    18   ar
    12    18     8    1
    13     7     8    1
    14     7     5    1
    15     8     4    1
    16     5     6    1
    17     5     3    1
    18     4     3    1
    19     3     1    1
    20     2     1    1
    21     1    19    1
    22     1    20    1
    23     2    21    1
    24     3    22    1
    25     5    23    1
    26     6    24    1
    27     7    25    1
    28     7    26    1
    29     8    27    1
    30    10    28    1
    31    15    29    1
    32    15    30    1
    33    17    31    1
    34    26    32    1
@<TRIPOS>MOLECULE
*****
 32 34 0 0 0
SMALL
GASTEIGER

@<TRIPOS>ATOM
      1 C5'         8.5610   -1.4860    3.2370 C.3   501  3D1501501    0.0730
      2 O5'         8.2247   -2.2455    4.4050 O.3   501  3D1501501   -0.3924
      3 C4'         8.9980   -2.3440    2.0460 C.3   501  3D1501501    0.1126
      4 O4'         7.8980   -3.1870    1.5730 O.3   501  3D1501501   -0.3457
      5 C3'         9.3860   -1.5720    0.7720 C.3   501  3D1501501    0.1135
      6 O3'        10.7180   -1.0980    0.8440 O.3   501  3D1501501   -0.3864
      7 C2'         9.2450   -2.6510   -0.3450 C.3   501  3D1501501    0.1285
      8 C1'         8.1610   -3.5760    0.1520 C.3   501  3D1501501    0.1667
      9 N1          4.1826   -0.3985   -0.3992 N.ar  501  3D1501501   -0.2188
     10 C2          5.3304   -0.2741    0.2963 C.ar  501  3D1501501    0.1205
     11 N3          6.3181   -1.1641    0.3885 N.ar  501  3D1501501   -0.2159
     12 C4          6.0417   -2.2832   -0.3077 C.ar  501  3D1501501    0.1674
     13 C5          4.9290   -2.5514   -1.0627 C.ar  501  3D1501501    0.1473
     14 C6          3.9707   -1.5101   -1.1646 C.ar  501  3D1501501    0.1472
     15 N6          2.9228   -1.5461   -1.9989 N.pl3 501  3D1501501   -0.3413
     16 N7          4.9806   -3.8170   -1.6258 N.ar  501  3D1501501   -0.2306
     17 C8          6.1246   -4.3121   -1.2040 C.ar  501  3D1501501    0.1004
     18 N9          6.8170   -3.4220   -0.4010 N.ar  501  3D1501501   -0.2855
     19 H5*1        7.7027   -0.9171    2.9460 H       1  A11         0.0584
     20 H5*2        9.3940   -0.8669    3.4972 H       1  A11         0.0584
     21 H5*         7.4700   -2.8224    4.2093 H       1  A11         0.2095
     22 H4*         9.8413   -2.8665    2.4469 H       1  A11         0.0647
     23 H3*         8.7814   -0.7045    0.6081 H       1  A11         0.0647
     24 H3*        11.3192   -1.8445    0.9929 H       1  A11         0.2100
     25 H2*         8.9601   -2.1994   -1.2723 H       1  A11         0.0665
     26 O2*        10.1645   -3.1663   -0.5291 O.3     1  A11        -0.3847
     27 H1*         8.5360   -4.5488   -0.0885 H       1  A11         0.0866
     28 H2          5.4587    0.6087    0.8152 H       1  A11         0.1048
     29 H61         2.2893   -0.7930   -2.0264 H       1  A11         0.1438
     30 H62         2.7863   -2.3258   -2.5843 H       1  A11         0.1438
     31 H8          6.4663   -5.2557   -1.4443 H       1  A11         0.1030
     32 H2*        10.4644   -3.5945    0.2880 H       1  A11         0.2101
@<TRIPOS>BOND
     1    15    14    1
     2    14     9   ar
     3    14    13   ar
     4     9    10   ar
     5    13    16   ar
     6    13    12   ar
     7    16    17   ar
     8    10    11   ar
     9    12    11   ar
    10    12    18   ar
    11    17    18   ar
    12    18     8    1
    13     7     8    1
    14     7     5    1
    15     8     4    1
    16     5     6    1
    17     5     3    1
    18     4     3    1
    19     3     1    1
    20     2     1    1
    21     1    19    1
    22     1    20    1
    23     2    21    1
    24     3    22    1
    25     5    23    1
    26     6    24    1
    27     7    25    1
    28     7    26    1
    29     8    27    1
    30    10    28    1
    31    15    29    1
    32    15    30    1
    33    17    31    1
    34    26    32    1
@<TRIPOS>MOLECULE
*****
 32 34 0 0 0
SMALL
GASTEIGER

@<TRIPOS>ATOM
      1 C5'         8.5610   -1.4860    3.2370 C.3   501  3D1501501    0.0730
      2 O5'         8.2247   -2.2455    4.4050 O.3   501  3D1501501   -0.3924
      3 C4'         8.9980   -2.3440    2.0460 C.3   501  3D1501501    0.1126
      4 O4'         7.8980   -3.1870    1.5730 O.3   501  3D1501501   -0.3457
      5 C3'         9.3860   -1.5720    0.7720 C.3   501  3D1501501    0.1135
      6 O3'        10.7180   -1.0980    0.8440 O.3   501  3D1501501   -0.3864
      7 C2'         9.2450   -2.6510   -0.3450 C.3   501  3D1501501    0.1285
      8 C1'         8.1610   -3.5760    0.1520 C.3   501  3D1501501    0.1667
      9 N1          5.2388   -0.9243   -3.1126 N.ar  501  3D1501501   -0.2188
     10 C2          6.5185   -0.7547   -2.7252 C.ar  501  3D1501501    0.1205
     11 N3          7.2036   -1.4979   -1.8567 N.ar  501  3D1501501   -0.2159
     12 C4          6.4473   -2.4912   -1.3516 C.ar  501  3D1501501    0.1674
     13 C5          5.1436   -2.7918   -1.6511 C.ar  501  3D1501501    0.1473
     14 C6          4.5254   -1.9924   -2.6471 C.ar  501  3D1501501    0.1472
     15 N6          3.3250   -2.2647   -3.1766 N.pl3 501  3D1501501   -0.3413
     16 N7          4.6843   -3.8780   -0.9227 N.ar  501  3D1501501   -0.2306
     17 C8          5.7129   -4.2275   -0.1800 C.ar  501  3D1501501    0.1004
     18 N9          6.8170   -3.4220   -0.4010 N.ar  501  3D1501501   -0.2855
     19 H5*1        7.7027   -0.9171    2.9460 H       1  A11         0.0584
     20 H5*2        9.3940   -0.8669    3.4972 H       1  A11         0.0584
     21 H5*         7.4700   -2.8224    4.2093 H       1  A11         0.2095
     22 H4*         9.8413   -2.8665    2.4469 H       1  A11         0.0647
     23 H3*         8.7814   -0.7045    0.6081 H       1  A11         0.0647
     24 H3*        11.3192   -1.8445    0.9929 H       1  A11         0.2100
     25 H2*         8.9601   -2.1994   -1.2723 H       1  A11         0.0665
     26 O2*        10.1645   -3.1663   -0.5291 O.3     1  A11        -0.3847
     27 H1*         8.5360   -4.5488   -0.0885 H       1  A11         0.0866
     28 H2          7.0243    0.0392   -3.1484 H       1  A11         0.1048
     29 H61         2.9453   -1.6730   -3.8657 H       1  A11         0.1438
     30 H62         2.8227   -3.0564   -2.8764 H       1  A11         0.1438
     31 H8          5.6983   -5.0121    0.4902 H       1  A11         0.1030
     32 H2*        10.4644   -3.5945    0.2880 H       1  A11         0.2101
@<TRIPOS>BOND
     1    15    14    1
     2    14     9   ar
     3    14    13   ar
     4     9    10   ar
     5    13    16   ar
     6    13    12   ar
     7    16    17   ar
     8    10    11   ar
     9    12    11   ar
    10    12    18   ar
    11    17    18   ar
    12    18     8    1
    13     7     8    1
    14     7     5    1
    15     8     4    1
    16     5     6    1
    17     5     3    1
    18     4     3    1
    19     3     1    1
    20     2     1    1
    21     1    19    1
    22     1    20    1
    23     2    21    1
    24     3    22    1
    25     5    23    1
    26     6    24    1
    27     7    25    1
    28     7    26    1
    29     8    27    1
    30    10    28    1
    31    15    29    1
    32    15    30    1
    33    17    31    1
    34    26    32    1
@<TRIPOS>MOLECULE
*****
 32 34 0 0 0
SMALL
GASTEIGER

@<TRIPOS>ATOM
      1 C5'         8.5610   -1.4860    3.2370 C.3   501  3D1501501    0.0730
      2 O5'         7.4225   -0.6582    2.9672 O.3   501  3D1501501   -0.3924
      3 C4'         8.9980   -2.3440    2.0460 C.3   501  3D1501501    0.1126
      4 O4'         7.8980   -3.1870    1.5730 O.3   501  3D1501501   -0.3457
      5 C3'         9.3860   -1.5720    0.7720 C.3   501  3D1501501    0.1135
      6 O3'        10.7180   -1.0980    0.8440 O.3   501  3D1501501   -0.3864
      7 C2'         9.2450   -2.6510   -0.3450 C.3   501  3D1501501    0.1285
      8 C1'         8.1610   -3.5760    0.1520 C.3   501  3D1501501    0.1667
      9 N1          5.2388   -0.9243   -3.1126 N.ar  501  3D1501501   -0.2188
     10 C2          6.5185   -0.7547   -2.7252 C.ar  501  3D1501501    0.1205
     11 N3          7.2036   -1.4979   -1.8567 N.ar  501  3D1501501   -0.2159
     12 C4          6.4473   -2.4912   -1.3516 C.ar  501  3D1501501    0.1674
     13 C5          5.1436   -2.7918   -1.6511 C.ar  501  3D1501501    0.1473
     14 C6          4.5254   -1.9924   -2.6471 C.ar  501  3D1501501    0.1472
     15 N6          3.3250   -2.2647   -3.1766 N.pl3 501  3D1501501   -0.3413
     16 N7          4.6843   -3.8780   -0.9227 N.ar  501  3D1501501   -0.2306
     17 C8          5.7129   -4.2275   -0.1800 C.ar  501  3D1501501    0.1004
     18 N9          6.8170   -3.4220   -0.4010 N.ar  501  3D1501501   -0.2855
     19 H5*1        9.3787   -0.8546    3.5159 H       1  A11         0.0584
     20 H5*2        8.2781   -2.1594    4.0189 H       1  A11         0.0584
     21 H5*         7.6394   -0.0305    2.2602 H       1  A11         0.2095
     22 H4*         9.8413   -2.8665    2.4469 H       1  A11         0.0647
     23 H3*         8.7814   -0.7045    0.6081 H       1  A11         0.0647
     24 H3*        11.3192   -1.8445    0.9929 H       1  A11         0.2100
     25 H2*         8.9601   -2.1994   -1.2723 H       1  A11         0.0665
     26 O2*        10.1645   -3.1663   -0.5291 O.3     1  A11        -0.3847
     27 H1*         8.5360   -4.5488   -0.0885 H       1  A11         0.0866
     28 H2          7.0243    0.0392   -3.1484 H       1  A11         0.1048
     29 H61         2.9453   -1.6730   -3.8657 H       1  A11         0.1438
     30 H62         2.8227   -3.0564   -2.8764 H       1  A11         0.1438
     31 H8          5.6983   -5.0121    0.4902 H       1  A11         0.1030
     32 H2*        10.4644   -3.5945    0.2880 H       1  A11         0.2101
@<TRIPOS>BOND
     1    15    14    1
     2    14     9   ar
     3    14    13   ar
     4     9    10   ar
     5    13    16   ar
     6    13    12   ar
     7    16    17   ar
     8    10    11   ar
     9    12    11   ar
    10    12    18   ar
    11    17    18   ar
    12    18     8    1
    13     7     8    1
    14     7     5    1
    15     8     4    1
    16     5     6    1
    17     5     3    1
    18     4     3    1
    19     3     1    1
    20     2     1    1
    21     1    19    1
    22     1    20    1
    23     2    21    1
    24     3    22    1
    25     5    23    1
    26     6    24    1
    27     7    25    1
    28     7    26    1
    29     8    27    1
    30    10    28    1
    31    15    29    1
    32    15    30    1
    33    17    31    1
    34    26    32    1
@<TRIPOS>MOLECULE
*****
 32 34 0 0 0
SMALL
GASTEIGER

@<TRIPOS>ATOM
      1 C5'         8.5610   -1.4860    3.2370 C.3   501  3D1501501    0.0730
      2 O5'         7.4225   -0.6582    2.9672 O.3   501  3D1501501   -0.3924
      3 C4'         8.9980   -2.3440    2.0460 C.3   501  3D1501501    0.1126
      4 O4'         7.8980   -3.1870    1.5730 O.3   501  3D1501501   -0.3457
      5 C3'         9.3860   -1.5720    0.7720 C.3   501  3D1501501    0.1135
      6 O3'        10.7180   -1.0980    0.8440 O.3   501  3D1501501   -0.3864
      7 C2'         9.2450   -2.6510   -0.3450 C.3   501  3D1501501    0.1285
      8 C1'         8.1610   -3.5760    0.1520 C.3   501  3D1501501    0.1667
      9 N1          4.1826   -0.3985   -0.3992 N.ar  501  3D1501501   -0.2188
     10 C2          5.3304   -0.2741    0.2963 C.ar  501  3D1501501    0.1205
     11 N3          6.3181   -1.1641    0.3885 N.ar  501  3D1501501   -0.2159
     12 C4          6.0417   -2.2832   -0.3077 C.ar  501  3D1501501    0.1674
     13 C5          4.9290   -2.5514   -1.0627 C.ar  501  3D1501501    0.1473
     14 C6          3.9707   -1.5101   -1.1646 C.ar  501  3D1501501    0.1472
     15 N6          2.9228   -1.5461   -1.9989 N.pl3 501  3D1501501   -0.3413
     16 N7          4.9806   -3.8170   -1.6258 N.ar  501  3D1501501   -0.2306
     17 C8          6.1246   -4.3121   -1.2040 C.ar  501  3D1501501    0.1004
     18 N9          6.8170   -3.4220   -0.4010 N.ar  501  3D1501501   -0.2855
     19 H5*1        9.3787   -0.8546    3.5159 H       1  A11         0.0584
     20 H5*2        8.2781   -2.1594    4.0189 H       1  A11         0.0584
     21 H5*         7.6394   -0.0305    2.2602 H       1  A11         0.2095
     22 H4*         9.8413   -2.8665    2.4469 H       1  A11         0.0647
     23 H3*         8.7814   -0.7045    0.6081 H       1  A11         0.0647
     24 H3*        11.3192   -1.8445    0.9929 H       1  A11         0.2100
     25 H2*         8.9601   -2.1994   -1.2723 H       1  A11         0.0665
     26 O2*        10.1645   -3.1663   -0.5291 O.3     1  A11        -0.3847
     27 H1*         8.5360   -4.5488   -0.0885 H       1  A11         0.0866
     28 H2          5.4587    0.6087    0.8152 H       1  A11         0.1048
     29 H61         2.2893   -0.7930   -2.0264 H       1  A11         0.1438
     30 H62         2.7863   -2.3258   -2.5843 H       1  A11         0.1438
     31 H8          6.4663   -5.2557   -1.4443 H       1  A11         0.1030
     32 H2*        10.4644   -3.5945    0.2880 H       1  A11         0.2101
@<TRIPOS>BOND
     1    15    14    1
     2    14     9   ar
     3    14    13   ar
     4     9    10   ar
     5    13    16   ar
     6    13    12   ar
     7    16    17   ar
     8    10    11   ar
     9    12    11   ar
    10    12    18   ar
    11    17    18   ar
    12    18     8    1
    13     7     8    1
    14     7     5    1
    15     8     4    1
    16     5     6    1
    17     5     3    1
    18     4     3    1
    19     3     1    1
    20     2     1    1
    21     1    19    1
    22     1    20    1
    23     2    21    1
    24     3    22    1
    25     5    23    1
    26     6    24    1
    27     7    25    1
    28     7    26    1
    29     8    27    1
    30    10    28    1
    31    15    29    1
    32    15    30    1
    33    17    31    1
    34    26    32    1
@<TRIPOS>MOLECULE
*****
 32 34 0 0 0
SMALL
GASTEIGER

@<TRIPOS>ATOM
      1 C5'         8.5610   -1.4860    3.2370 C.3   501  3D1501501    0.0730
      2 O5'         9.5709   -0.5801    3.6993 O.3   501  3D1501501   -0.3924
      3 C4'         8.9980   -2.3440    2.0460 C.3   501  3D1501501    0.1126
      4 O4'         7.8980   -3.1870    1.5730 O.3   501  3D1501501   -0.3457
      5 C3'         9.3860   -1.5720    0.7720 C.3   501  3D1501501    0.1135
      6 O3'        10.7180   -1.0980    0.8440 O.3   501  3D1501501   -0.3864
      7 C2'         9.2450   -2.6510   -0.3450 C.3   501  3D1501501    0.1285
      8 C1'         8.1610   -3.5760    0.1520 C.3   501  3D1501501    0.1667
      9 N1          4.7893   -0.2754   -1.8395 N.ar  501  3D1501501   -0.2188
     10 C2          6.0067   -0.0827   -1.2943 C.ar  501  3D1501501    0.1205
     11 N3          6.8208   -1.0098   -0.7904 N.ar  501  3D1501501   -0.2159
     12 C4          6.2750   -2.2388   -0.8625 C.ar  501  3D1501501    0.1674
     13 C5          5.0597   -2.5902   -1.3910 C.ar  501  3D1501501    0.1473
     14 C6          4.3007   -1.5439   -1.9761 C.ar  501  3D1501501    0.1472
     15 N6          3.1825   -1.7467   -2.6859 N.pl3 501  3D1501501   -0.3413
     16 N7          4.8219   -3.9511   -1.2775 N.ar  501  3D1501501   -0.2306
     17 C8          5.8948   -4.4176   -0.6749 C.ar  501  3D1501501    0.1004
     18 N9          6.8170   -3.4220   -0.4010 N.ar  501  3D1501501   -0.2855
     19 H5*1        8.2977   -2.1378    4.0437 H       1  A11         0.0584
     20 H5*2        7.7362   -0.8902    2.9057 H       1  A11         0.0584
     21 H5*        10.3395   -1.0838    4.0097 H       1  A11         0.2095
     22 H4*         9.8413   -2.8665    2.4469 H       1  A11         0.0647
     23 H3*         8.7814   -0.7045    0.6081 H       1  A11         0.0647
     24 H3*        11.3192   -1.8445    0.9929 H       1  A11         0.2100
     25 H2*         8.9601   -2.1994   -1.2723 H       1  A11         0.0665
     26 O2*        10.1645   -3.1663   -0.5291 O.3     1  A11        -0.3847
     27 H1*         8.5360   -4.5488   -0.0885 H       1  A11         0.0866
     28 H2          6.3464    0.8914   -1.2635 H       1  A11         0.1048
     29 H61         2.6967   -0.9808   -3.0688 H       1  A11         0.1438
     30 H62         2.8466   -2.6617   -2.8245 H       1  A11         0.1438
     31 H8          6.0328   -5.4115   -0.4341 H       1  A11         0.1030
     32 H2*        10.4644   -3.5945    0.2880 H       1  A11         0.2101
@<TRIPOS>BOND
     1    15    14    1
     2    14     9   ar
     3    14    13   ar
     4     9    10   ar
     5    13    16   ar
     6    13    12   ar
     7    16    17   ar
     8    10    11   ar
     9    12    11   ar
    10    12    18   ar
    11    17    18   ar
    12    18     8    1
    13     7     8    1
    14     7     5    1
    15     8     4    1
    16     5     6    1
    17     5     3    1
    18     4     3    1
    19     3     1    1
    20     2     1    1
    21     1    19    1
    22     1    20    1
    23     2    21    1
    24     3    22    1
    25     5    23    1
    26     6    24    1
    27     7    25    1
    28     7    26    1
    29     8    27    1
    30    10    28    1
    31    15    29    1
    32    15    30    1
    33    17    31    1
    34    26    32    1
@<TRIPOS>MOLECULE
*****
 32 34 0 0 0
SMALL
GASTEIGER

@<TRIPOS>ATOM
      1 C5'         8.5610   -1.4860    3.2370 C.3   501  3D1501501    0.0730
      2 O5'         8.2247   -2.2455    4.4050 O.3   501  3D1501501   -0.3924
      3 C4'         8.9980   -2.3440    2.0460 C.3   501  3D1501501    0.1126
      4 O4'         7.8980   -3.1870    1.5730 O.3   501  3D1501501   -0.3457
      5 C3'         9.3860   -1.5720    0.7720 C.3   501  3D1501501    0.1135
      6 O3'        10.7180   -1.0980    0.8440 O.3   501  3D1501501   -0.3864
      7 C2'         9.2450   -2.6510   -0.3450 C.3   501  3D1501501    0.1285
      8 C1'         8.1610   -3.5760    0.1520 C.3   501  3D1501501    0.1667
      9 N1          3.6315   -1.2504    0.7029 N.ar  501  3D1501501   -0.2188
     10 C2          4.7267   -1.2618    1.4884 C.ar  501  3D1501501    0.1205
     11 N3          5.8717   -1.9067    1.2666 N.ar  501  3D1501501   -0.2159
     12 C4          5.8291   -2.6088    0.1181 C.ar  501  3D1501501    0.1674
     13 C5          4.7975   -2.6891   -0.7814 C.ar  501  3D1501501    0.1473
     14 C6          3.6511   -1.9029   -0.4972 C.ar  501  3D1501501    0.1472
     15 N6          2.6370   -1.7332   -1.3565 N.pl3 501  3D1501501   -0.3413
     16 N7          5.1047   -3.5227   -1.8454 N.ar  501  3D1501501   -0.2306
     17 C8          6.3217   -3.9482   -1.5819 C.ar  501  3D1501501    0.1004
     18 N9          6.8170   -3.4220   -0.4010 N.ar  501  3D1501501   -0.2855
     19 H5*1        7.7027   -0.9171    2.9460 H       1  A11         0.0584
     20 H5*2        9.3940   -0.8669    3.4972 H       1  A11         0.0584
     21 H5*         7.4700   -2.8224    4.2093 H       1  A11         0.2095
     22 H4*         9.8413   -2.8665    2.4469 H       1  A11         0.0647
     23 H3*         8.7814   -0.7045    0.6081 H       1  A11         0.0647
     24 H3*        11.3192   -1.8445    0.9929 H       1  A11         0.2100
     25 H2*         8.9601   -2.1994   -1.2723 H       1  A11         0.0665
     26 O2*        10.1645   -3.1663   -0.5291 O.3     1  A11        -0.3847
     27 H1*         8.5360   -4.5488   -0.0885 H       1  A11         0.0866
     28 H2          4.6726   -0.7097    2.3586 H       1  A11         0.1048
     29 H61         1.8660   -1.1755   -1.1041 H       1  A11         0.1438
     30 H62         2.6630   -2.1664   -2.2402 H       1  A11         0.1438
     31 H8          6.8468   -4.5995   -2.1862 H       1  A11         0.1030
     32 H2*        10.4644   -3.5945    0.2880 H       1  A11         0.2101
@<TRIPOS>BOND
     1    15    14    1
     2    14     9   ar
     3    14    13   ar
     4     9    10   ar
     5    13    16   ar
     6    13    12   ar
     7    16    17   ar
     8    10    11   ar
     9    12    11   ar
    10    12    18   ar
    11    17    18   ar
    12    18     8    1
    13     7     8    1
    14     7     5    1
    15     8     4    1
    16     5     6    1
    17     5     3    1
    18     4     3    1
    19     3     1    1
    20     2     1    1
    21     1    19    1
    22     1    20    1
    23     2    21    1
    24     3    22    1
    25     5    23    1
    26     6    24    1
    27     7    25    1
    28     7    26    1
    29     8    27    1
    30    10    28    1
    31    15    29    1
    32    15    30    1
    33    17    31    1
    34    26    32    1
@<TRIPOS>MOLECULE
*****
 32 34 0 0 0
SMALL
GASTEIGER

@<TRIPOS>ATOM
      1 C5'         8.5610   -1.4860    3.2370 C.3   501  3D1501501    0.0730
      2 O5'         8.2247   -2.2455    4.4050 O.3   501  3D1501501   -0.3924
      3 C4'         8.9980   -2.3440    2.0460 C.3   501  3D1501501    0.1126
      4 O4'         7.8980   -3.1870    1.5730 O.3   501  3D1501501   -0.3457
      5 C3'         9.3860   -1.5720    0.7720 C.3   501  3D1501501    0.1135
      6 O3'        10.7180   -1.0980    0.8440 O.3   501  3D1501501   -0.3864
      7 C2'         9.2450   -2.6510   -0.3450 C.3   501  3D1501501    0.1285
      8 C1'         8.1610   -3.5760    0.1520 C.3   501  3D1501501    0.1667
      9 N1          3.2546   -2.5952    1.2444 N.ar  501  3D1501501   -0.2188
     10 C2          4.3248   -2.7756    2.0437 C.ar  501  3D1501501    0.1205
     11 N3          5.5770   -3.0351    1.6686 N.ar  501  3D1501501   -0.2159
     12 C4          5.6832   -3.1254    0.3291 C.ar  501  3D1501501    0.1674
     13 C5          4.6943   -2.9613   -0.6064 C.ar  501  3D1501501    0.1473
     14 C6          3.4121   -2.6077   -0.1125 C.ar  501  3D1501501    0.1472
     15 N6          2.3902   -2.2416   -0.8982 N.pl3 501  3D1501501   -0.3413
     16 N7          5.1689   -3.1438   -1.8959 N.ar  501  3D1501501   -0.2306
     17 C8          6.4447   -3.4232   -1.7344 C.ar  501  3D1501501    0.1004
     18 N9          6.8170   -3.4220   -0.4010 N.ar  501  3D1501501   -0.2855
     19 H5*1        7.7027   -0.9171    2.9460 H       1  A11         0.0584
     20 H5*2        9.3940   -0.8669    3.4972 H       1  A11         0.0584
     21 H5*         7.4700   -2.8224    4.2093 H       1  A11         0.2095
     22 H4*         9.8413   -2.8665    2.4469 H       1  A11         0.0647
     23 H3*         8.7814   -0.7045    0.6081 H       1  A11         0.0647
     24 H3*        11.3192   -1.8445    0.9929 H       1  A11         0.2100
     25 H2*         8.9601   -2.1994   -1.2723 H       1  A11         0.0665
     26 O2*        10.1645   -3.1663   -0.5291 O.3     1  A11        -0.3847
     27 H1*         8.5360   -4.5488   -0.0885 H       1  A11         0.0866
     28 H2          4.1557   -2.7048    3.0593 H       1  A11         0.1048
     29 H61         1.5216   -2.0067   -0.4987 H       1  A11         0.1438
     30 H62         2.5080   -2.2075   -1.8750 H       1  A11         0.1438
     31 H8          7.0932   -3.6205   -2.5125 H       1  A11         0.1030
     32 H2*        10.4644   -3.5945    0.2880 H       1  A11         0.2101
@<TRIPOS>BOND
     1    15    14    1
     2    14     9   ar
     3    14    13   ar
     4     9    10   ar
     5    13    16   ar
     6    13    12   ar
     7    16    17   ar
     8    10    11   ar
     9    12    11   ar
    10    12    18   ar
    11    17    18   ar
    12    18     8    1
    13     7     8    1
    14     7     5    1
    15     8     4    1
    16     5     6    1
    17     5     3    1
    18     4     3    1
    19     3     1    1
    20     2     1    1
    21     1    19    1
    22     1    20    1
    23     2    21    1
    24     3    22    1
    25     5    23    1
    26     6    24    1
    27     7    25    1
    28     7    26    1
    29     8    27    1
    30    10    28    1
    31    15    29    1
    32    15    30    1
    33    17    31    1
    34    26    32    1
@<TRIPOS>MOLECULE
*****
 32 34 0 0 0
SMALL
GASTEIGER

@<TRIPOS>ATOM
      1 C5'         8.5610   -1.4860    3.2370 C.3   501  3D1501501    0.0730
      2 O5'         9.5709   -0.5801    3.6993 O.3   501  3D1501501   -0.3924
      3 C4'         8.9980   -2.3440    2.0460 C.3   501  3D1501501    0.1126
      4 O4'         7.8980   -3.1870    1.5730 O.3   501  3D1501501   -0.3457
      5 C3'         9.3860   -1.5720    0.7720 C.3   501  3D1501501    0.1135
      6 O3'        10.7180   -1.0980    0.8440 O.3   501  3D1501501   -0.3864
      7 C2'         9.2450   -2.6510   -0.3450 C.3   501  3D1501501    0.1285
      8 C1'         8.1610   -3.5760    0.1520 C.3   501  3D1501501    0.1667
      9 N1          5.2388   -0.9243   -3.1126 N.ar  501  3D1501501   -0.2188
     10 C2          6.5185   -0.7547   -2.7252 C.ar  501  3D1501501    0.1205
     11 N3          7.2036   -1.4979   -1.8567 N.ar  501  3D1501501   -0.2159
     12 C4          6.4473   -2.4912   -1.3516 C.ar  501  3D1501501    0.1674
     13 C5          5.1436   -2.7918   -1.6511 C.ar  501  3D1501501    0.1473
     14 C6          4.5254   -1.9924   -2.6471 C.ar  501  3D1501501    0.1472
     15 N6          3.3250   -2.2647   -3.1766 N.pl3 501  3D1501501   -0.3413
     16 N7          4.6843   -3.8780   -0.9227 N.ar  501  3D1501501   -0.2306
     17 C8          5.7129   -4.2275   -0.1800 C.ar  501  3D1501501    0.1004
     18 N9          6.8170   -3.4220   -0.4010 N.ar  501  3D1501501   -0.2855
     19 H5*1        8.2977   -2.1378    4.0437 H       1  A11         0.0584
     20 H5*2        7.7362   -0.8902    2.9057 H       1  A11         0.0584
     21 H5*        10.3395   -1.0838    4.0097 H       1  A11         0.2095
     22 H4*         9.8413   -2.8665    2.4469 H       1  A11         0.0647
     23 H3*         8.7814   -0.7045    0.6081 H       1  A11         0.0647
     24 H3*        11.3192   -1.8445    0.9929 H       1  A11         0.2100
     25 H2*         8.9601   -2.1994   -1.2723 H       1  A11         0.0665
     26 O2*        10.1645   -3.1663   -0.5291 O.3     1  A11        -0.3847
     27 H1*         8.5360   -4.5488   -0.0885 H       1  A11         0.0866
     28 H2          7.0243    0.0392   -3.1484 H       1  A11         0.1048
     29 H61         2.9453   -1.6730   -3.8657 H       1  A11         0.1438
     30 H62         2.8227   -3.0564   -2.8764 H       1  A11         0.1438
     31 H8          5.6983   -5.0121    0.4902 H       1  A11         0.1030
     32 H2*        10.4644   -3.5945    0.2880 H       1  A11         0.2101
@<TRIPOS>BOND
     1    15    14    1
     2    14     9   ar
     3    14    13   ar
     4     9    10   ar
     5    13    16   ar
     6    13    12   ar
     7    16    17   ar
     8    10    11   ar
     9    12    11   ar
    10    12    18   ar
    11    17    18   ar
    12    18     8    1
    13     7     8    1
    14     7     5    1
    15     8     4    1
    16     5     6    1
    17     5     3    1
    18     4     3    1
    19     3     1    1
    20     2     1    1
    21     1    19    1
    22     1    20    1
    23     2    21    1
    24     3    22    1
    25     5    23    1
    26     6    24    1
    27     7    25    1
    28     7    26    1
    29     8    27    1
    30    10    28    1
    31    15    29    1
    32    15    30    1
    33    17    31    1
    34    26    32    1
@<TRIPOS>MOLECULE
*****
 32 34 0 0 0
SMALL
GASTEIGER

@<TRIPOS>ATOM
      1 C5'         8.5610   -1.4860    3.2370 C.3   501  3D1501501    0.0730
      2 O5'         7.4225   -0.6582    2.9672 O.3   501  3D1501501   -0.3924
      3 C4'         8.9980   -2.3440    2.0460 C.3   501  3D1501501    0.1126
      4 O4'         7.8980   -3.1870    1.5730 O.3   501  3D1501501   -0.3457
      5 C3'         9.3860   -1.5720    0.7720 C.3   501  3D1501501    0.1135
      6 O3'        10.7180   -1.0980    0.8440 O.3   501  3D1501501   -0.3864
      7 C2'         9.2450   -2.6510   -0.3450 C.3   501  3D1501501    0.1285
      8 C1'         8.1610   -3.5760    0.1520 C.3   501  3D1501501    0.1667
      9 N1          3.6315   -1.2504    0.7029 N.ar  501  3D1501501   -0.2188
     10 C2          4.7267   -1.2618    1.4884 C.ar  501  3D1501501    0.1205
     11 N3          5.8717   -1.9067    1.2666 N.ar  501  3D1501501   -0.2159
     12 C4          5.8291   -2.6088    0.1181 C.ar  501  3D1501501    0.1674
     13 C5          4.7975   -2.6891   -0.7814 C.ar  501  3D1501501    0.1473
     14 C6          3.6511   -1.9029   -0.4972 C.ar  501  3D1501501    0.1472
     15 N6          2.6370   -1.7332   -1.3565 N.pl3 501  3D1501501   -0.3413
     16 N7          5.1047   -3.5227   -1.8454 N.ar  501  3D1501501   -0.2306
     17 C8          6.3217   -3.9482   -1.5819 C.ar  501  3D1501501    0.1004
     18 N9          6.8170   -3.4220   -0.4010 N.ar  501  3D1501501   -0.2855
     19 H5*1        9.3787   -0.8546    3.5159 H       1  A11         0.0584
     20 H5*2        8.2781   -2.1594    4.0189 H       1  A11         0.0584
     21 H5*         7.6394   -0.0305    2.2602 H       1  A11         0.2095
     22 H4*         9.8413   -2.8665    2.4469 H       1  A11         0.0647
     23 H3*         8.7814   -0.7045    0.6081 H       1  A11         0.0647
     24 H3*        11.3192   -1.8445    0.9929 H       1  A11         0.2100
     25 H2*         8.9601   -2.1994   -1.2723 H       1  A11         0.0665
     26 O2*        10.1645   -3.1663   -0.5291 O.3     1  A11        -0.3847
     27 H1*         8.5360   -4.5488   -0.0885 H       1  A11         0.0866
     28 H2          4.6726   -0.7097    2.3586 H       1  A11         0.1048
     29 H61         1.8660   -1.1755   -1.1041 H       1  A11         0.1438
     30 H62         2.6630   -2.1664   -2.2402 H       1  A11         0.1438
     31 H8          6.8468   -4.5995   -2.1862 H       1  A11         0.1030
     32 H2*        10.4644   -3.5945    0.2880 H       1  A11         0.2101
@<TRIPOS>BOND
     1    15    14    1
     2    14     9   ar
     3    14    13   ar
     4     9    10   ar
     5    13    16   ar
     6    13    12   ar
     7    16    17   ar
     8    10    11   ar
     9    12    11   ar
    10    12    18   ar
    11    17    18   ar
    12    18     8    1
    13     7     8    1
    14     7     5    1
    15     8     4    1
    16     5     6    1
    17     5     3    1
    18     4     3    1
    19     3     1    1
    20     2     1    1
    21     1    19    1
    22     1    20    1
    23     2    21    1
    24     3    22    1
    25     5    23    1
    26     6    24    1
    27     7    25    1
    28     7    26    1
    29     8    27    1
    30    10    28    1
    31    15    29    1
    32    15    30    1
    33    17    31    1
    34    26    32    1
@<TRIPOS>MOLECULE
*****
 32 34 0 0 0
SMALL
GASTEIGER

@<TRIPOS>ATOM
      1 C5'         8.5610   -1.4860    3.2370 C.3   501  3D1501501    0.0730
      2 O5'         7.4225   -0.6582    2.9672 O.3   501  3D1501501   -0.3924
      3 C4'         8.9980   -2.3440    2.0460 C.3   501  3D1501501    0.1126
      4 O4'         7.8980   -3.1870    1.5730 O.3   501  3D1501501   -0.3457
      5 C3'         9.3860   -1.5720    0.7720 C.3   501  3D1501501    0.1135
      6 O3'        10.7180   -1.0980    0.8440 O.3   501  3D1501501   -0.3864
      7 C2'         9.2450   -2.6510   -0.3450 C.3   501  3D1501501    0.1285
      8 C1'         8.1610   -3.5760    0.1520 C.3   501  3D1501501    0.1667
      9 N1          3.2546   -2.5952    1.2444 N.ar  501  3D1501501   -0.2188
     10 C2          4.3248   -2.7756    2.0437 C.ar  501  3D1501501    0.1205
     11 N3          5.5770   -3.0351    1.6686 N.ar  501  3D1501501   -0.2159
     12 C4          5.6832   -3.1254    0.3291 C.ar  501  3D1501501    0.1674
     13 C5          4.6943   -2.9613   -0.6064 C.ar  501  3D1501501    0.1473
     14 C6          3.4121   -2.6077   -0.1125 C.ar  501  3D1501501    0.1472
     15 N6          2.3902   -2.2416   -0.8982 N.pl3 501  3D1501501   -0.3413
     16 N7          5.1689   -3.1438   -1.8959 N.ar  501  3D1501501   -0.2306
     17 C8          6.4447   -3.4232   -1.7344 C.ar  501  3D1501501    0.1004
     18 N9          6.8170   -3.4220   -0.4010 N.ar  501  3D1501501   -0.2855
     19 H5*1        9.3787   -0.8546    3.5159 H       1  A11         0.0584
     20 H5*2        8.2781   -2.1594    4.0189 H       1  A11         0.0584
     21 H5*         7.6394   -0.0305    2.2602 H       1  A11         0.2095
     22 H4*         9.8413   -2.8665    2.4469 H       1  A11         0.0647
     23 H3*         8.7814   -0.7045    0.6081 H       1  A11         0.0647
     24 H3*        11.3192   -1.8445    0.9929 H       1  A11         0.2100
     25 H2*         8.9601   -2.1994   -1.2723 H       1  A11         0.0665
     26 O2*        10.1645   -3.1663   -0.5291 O.3     1  A11        -0.3847
     27 H1*         8.5360   -4.5488   -0.0885 H       1  A11         0.0866
     28 H2          4.1557   -2.7048    3.0593 H       1  A11         0.1048
     29 H61         1.5216   -2.0067   -0.4987 H       1  A11         0.1438
     30 H62         2.5080   -2.2075   -1.8750 H       1  A11         0.1438
     31 H8          7.0932   -3.6205   -2.5125 H       1  A11         0.1030
     32 H2*        10.4644   -3.5945    0.2880 H       1  A11         0.2101
@<TRIPOS>BOND
     1    15    14    1
     2    14     9   ar
     3    14    13   ar
     4     9    10   ar
     5    13    16   ar
     6    13    12   ar
     7    16    17   ar
     8    10    11   ar
     9    12    11   ar
    10    12    18   ar
    11    17    18   ar
    12    18     8    1
    13     7     8    1
    14     7     5    1
    15     8     4    1
    16     5     6    1
    17     5     3    1
    18     4     3    1
    19     3     1    1
    20     2     1    1
    21     1    19    1
    22     1    20    1
    23     2    21    1
    24     3    22    1
    25     5    23    1
    26     6    24    1
    27     7    25    1
    28     7    26    1
    29     8    27    1
    30    10    28    1
    31    15    29    1
    32    15    30    1
    33    17    31    1
    34    26    32    1
@<TRIPOS>MOLECULE
*****
 32 34 0 0 0
SMALL
GASTEIGER

@<TRIPOS>ATOM
      1 C5'         8.5610   -1.4860    3.2370 C.3   501  3D1501501    0.0730
      2 O5'         8.2247   -2.2455    4.4050 O.3   501  3D1501501   -0.3924
      3 C4'         8.9980   -2.3440    2.0460 C.3   501  3D1501501    0.1126
      4 O4'         7.8980   -3.1870    1.5730 O.3   501  3D1501501   -0.3457
      5 C3'         9.3860   -1.5720    0.7720 C.3   501  3D1501501    0.1135
      6 O3'        10.7180   -1.0980    0.8440 O.3   501  3D1501501   -0.3864
      7 C2'         9.2450   -2.6510   -0.3450 C.3   501  3D1501501    0.1285
      8 C1'         8.1610   -3.5760    0.1520 C.3   501  3D1501501    0.1667
      9 N1          3.1505   -4.0810    1.0837 N.ar  501  3D1501501   -0.2188
     10 C2          4.2298   -4.4189    1.8167 C.ar  501  3D1501501    0.1205
     11 N3          5.5111   -4.2538    1.4893 N.ar  501  3D1501501   -0.2159
     12 C4          5.6420   -3.6975    0.2698 C.ar  501  3D1501501    0.1674
     13 C5          4.6465   -3.2968   -0.5835 C.ar  501  3D1501501    0.1473
     14 C6          3.3162   -3.4399   -0.1113 C.ar  501  3D1501501    0.1472
     15 N6          2.2470   -2.9380   -0.7440 N.pl3 501  3D1501501   -0.3413
     16 N7          5.1564   -2.7795   -1.7641 N.ar  501  3D1501501   -0.2306
     17 C8          6.4612   -2.8744   -1.6218 C.ar  501  3D1501501    0.1004
     18 N9          6.8170   -3.4220   -0.4010 N.ar  501  3D1501501   -0.2855
     19 H5*1        7.7027   -0.9171    2.9460 H       1  A11         0.0584
     20 H5*2        9.3940   -0.8669    3.4972 H       1  A11         0.0584
     21 H5*         7.4700   -2.8224    4.2093 H       1  A11         0.2095
     22 H4*         9.8413   -2.8665    2.4469 H       1  A11         0.0647
     23 H3*         8.7814   -0.7045    0.6081 H       1  A11         0.0647
     24 H3*        11.3192   -1.8445    0.9929 H       1  A11         0.2100
     25 H2*         8.9601   -2.1994   -1.2723 H       1  A11         0.0665
     26 O2*        10.1645   -3.1663   -0.5291 O.3     1  A11        -0.3847
     27 H1*         8.5360   -4.5488   -0.0885 H       1  A11         0.0866
     28 H2          4.0433   -4.8541    2.7337 H       1  A11         0.1048
     29 H61         1.3463   -3.0690   -0.3685 H       1  A11         0.1438
     30 H62         2.3620   -2.4384   -1.5844 H       1  A11         0.1438
     31 H8          7.1412   -2.5750   -2.3379 H       1  A11         0.1030
     32 H2*        10.4644   -3.5945    0.2880 H       1  A11         0.2101
@<TRIPOS>BOND
     1    15    14    1
     2    14     9   ar
     3    14    13   ar
     4     9    10   ar
     5    13    16   ar
     6    13    12   ar
     7    16    17   ar
     8    10    11   ar
     9    12    11   ar
    10    12    18   ar
    11    17    18   ar
    12    18     8    1
    13     7     8    1
    14     7     5    1
    15     8     4    1
    16     5     6    1
    17     5     3    1
    18     4     3    1
    19     3     1    1
    20     2     1    1
    21     1    19    1
    22     1    20    1
    23     2    21    1
    24     3    22    1
    25     5    23    1
    26     6    24    1
    27     7    25    1
    28     7    26    1
    29     8    27    1
    30    10    28    1
    31    15    29    1
    32    15    30    1
    33    17    31    1
    34    26    32    1
@<TRIPOS>MOLECULE
*****
 32 34 0 0 0
SMALL
GASTEIGER

@<TRIPOS>ATOM
      1 C5'         8.5610   -1.4860    3.2370 C.3   501  3D1501501    0.0730
      2 O5'         8.2247   -2.2455    4.4050 O.3   501  3D1501501   -0.3924
      3 C4'         8.9980   -2.3440    2.0460 C.3   501  3D1501501    0.1126
      4 O4'         7.8980   -3.1870    1.5730 O.3   501  3D1501501   -0.3457
      5 C3'         9.3860   -1.5720    0.7720 C.3   501  3D1501501    0.1135
      6 O3'        10.7180   -1.0980    0.8440 O.3   501  3D1501501   -0.3864
      7 C2'         9.2450   -2.6510   -0.3450 C.3   501  3D1501501    0.1285
      8 C1'         8.1610   -3.5760    0.1520 C.3   501  3D1501501    0.1667
      9 N1          3.3465   -5.3186    0.2627 N.ar  501  3D1501501   -0.2188
     10 C2          4.4668   -5.7617    0.8669 C.ar  501  3D1501501    0.1205
     11 N3          5.6913   -5.2438    0.7757 N.ar  501  3D1501501   -0.2159
     12 C4          5.7164   -4.1755   -0.0441 C.ar  501  3D1501501    0.1674
     13 C5          4.6665   -3.6078   -0.7188 C.ar  501  3D1501501    0.1473
     14 C6          3.3886   -4.1818   -0.4938 C.ar  501  3D1501501    0.1472
     15 N6          2.2448   -3.6403   -0.9343 N.pl3 501  3D1501501   -0.3413
     16 N7          5.0705   -2.5253   -1.4845 N.ar  501  3D1501501   -0.2306
     17 C8          6.3670   -2.4457   -1.2734 C.ar  501  3D1501501    0.1004
     18 N9          6.8170   -3.4220   -0.4010 N.ar  501  3D1501501   -0.2855
     19 H5*1        7.7027   -0.9171    2.9460 H       1  A11         0.0584
     20 H5*2        9.3940   -0.8669    3.4972 H       1  A11         0.0584
     21 H5*         7.4700   -2.8224    4.2093 H       1  A11         0.2095
     22 H4*         9.8413   -2.8665    2.4469 H       1  A11         0.0647
     23 H3*         8.7814   -0.7045    0.6081 H       1  A11         0.0647
     24 H3*        11.3192   -1.8445    0.9929 H       1  A11         0.2100
     25 H2*         8.9601   -2.1994   -1.2723 H       1  A11         0.0665
     26 O2*        10.1645   -3.1663   -0.5291 O.3     1  A11        -0.3847
     27 H1*         8.5360   -4.5488   -0.0885 H       1  A11         0.0866
     28 H2          4.3650   -6.5951    1.4672 H       1  A11         0.1048
     29 H61         1.3861   -4.0842   -0.7478 H       1  A11         0.1438
     30 H62         2.2632   -2.7985   -1.4445 H       1  A11         0.1438
     31 H8          6.9781   -1.7369   -1.7081 H       1  A11         0.1030
     32 H2*        10.4644   -3.5945    0.2880 H       1  A11         0.2101
@<TRIPOS>BOND
     1    15    14    1
     2    14     9   ar
     3    14    13   ar
     4     9    10   ar
     5    13    16   ar
     6    13    12   ar
     7    16    17   ar
     8    10    11   ar
     9    12    11   ar
    10    12    18   ar
    11    17    18   ar
    12    18     8    1
    13     7     8    1
    14     7     5    1
    15     8     4    1
    16     5     6    1
    17     5     3    1
    18     4     3    1
    19     3     1    1
    20     2     1    1
    21     1    19    1
    22     1    20    1
    23     2    21    1
    24     3    22    1
    25     5    23    1
    26     6    24    1
    27     7    25    1
    28     7    26    1
    29     8    27    1
    30    10    28    1
    31    15    29    1
    32    15    30    1
    33    17    31    1
    34    26    32    1
@<TRIPOS>MOLECULE
*****
 32 34 0 0 0
SMALL
GASTEIGER

@<TRIPOS>ATOM
      1 C5'         8.5610   -1.4860    3.2370 C.3   501  3D1501501    0.0730
      2 O5'         7.4225   -0.6582    2.9672 O.3   501  3D1501501   -0.3924
      3 C4'         8.9980   -2.3440    2.0460 C.3   501  3D1501501    0.1126
      4 O4'         7.8980   -3.1870    1.5730 O.3   501  3D1501501   -0.3457
      5 C3'         9.3860   -1.5720    0.7720 C.3   501  3D1501501    0.1135
      6 O3'        10.7180   -1.0980    0.8440 O.3   501  3D1501501   -0.3864
      7 C2'         9.2450   -2.6510   -0.3450 C.3   501  3D1501501    0.1285
      8 C1'         8.1610   -3.5760    0.1520 C.3   501  3D1501501    0.1667
      9 N1          3.3465   -5.3186    0.2627 N.ar  501  3D1501501   -0.2188
     10 C2          4.4668   -5.7617    0.8669 C.ar  501  3D1501501    0.1205
     11 N3          5.6913   -5.2438    0.7757 N.ar  501  3D1501501   -0.2159
     12 C4          5.7164   -4.1755   -0.0441 C.ar  501  3D1501501    0.1674
     13 C5          4.6665   -3.6078   -0.7188 C.ar  501  3D1501501    0.1473
     14 C6          3.3886   -4.1818   -0.4938 C.ar  501  3D1501501    0.1472
     15 N6          2.2448   -3.6403   -0.9343 N.pl3 501  3D1501501   -0.3413
     16 N7          5.0705   -2.5253   -1.4845 N.ar  501  3D1501501   -0.2306
     17 C8          6.3670   -2.4457   -1.2734 C.ar  501  3D1501501    0.1004
     18 N9          6.8170   -3.4220   -0.4010 N.ar  501  3D1501501   -0.2855
     19 H5*1        9.3787   -0.8546    3.5159 H       1  A11         0.0584
     20 H5*2        8.2781   -2.1594    4.0189 H       1  A11         0.0584
     21 H5*         7.6394   -0.0305    2.2602 H       1  A11         0.2095
     22 H4*         9.8413   -2.8665    2.4469 H       1  A11         0.0647
     23 H3*         8.7814   -0.7045    0.6081 H       1  A11         0.0647
     24 H3*        11.3192   -1.8445    0.9929 H       1  A11         0.2100
     25 H2*         8.9601   -2.1994   -1.2723 H       1  A11         0.0665
     26 O2*        10.1645   -3.1663   -0.5291 O.3     1  A11        -0.3847
     27 H1*         8.5360   -4.5488   -0.0885 H       1  A11         0.0866
     28 H2          4.3650   -6.5951    1.4672 H       1  A11         0.1048
     29 H61         1.3861   -4.0842   -0.7478 H       1  A11         0.1438
     30 H62         2.2632   -2.7985   -1.4445 H       1  A11         0.1438
     31 H8          6.9781   -1.7369   -1.7081 H       1  A11         0.1030
     32 H2*        10.4644   -3.5945    0.2880 H       1  A11         0.2101
@<TRIPOS>BOND
     1    15    14    1
     2    14     9   ar
     3    14    13   ar
     4     9    10   ar
     5    13    16   ar
     6    13    12   ar
     7    16    17   ar
     8    10    11   ar
     9    12    11   ar
    10    12    18   ar
    11    17    18   ar
    12    18     8    1
    13     7     8    1
    14     7     5    1
    15     8     4    1
    16     5     6    1
    17     5     3    1
    18     4     3    1
    19     3     1    1
    20     2     1    1
    21     1    19    1
    22     1    20    1
    23     2    21    1
    24     3    22    1
    25     5    23    1
    26     6    24    1
    27     7    25    1
    28     7    26    1
    29     8    27    1
    30    10    28    1
    31    15    29    1
    32    15    30    1
    33    17    31    1
    34    26    32    1
@<TRIPOS>MOLECULE
*****
 32 34 0 0 0
SMALL
GASTEIGER

@<TRIPOS>ATOM
      1 C5'         8.5610   -1.4860    3.2370 C.3   501  3D1501501    0.0730
      2 O5'         7.4225   -0.6582    2.9672 O.3   501  3D1501501   -0.3924
      3 C4'         8.9980   -2.3440    2.0460 C.3   501  3D1501501    0.1126
      4 O4'         7.8980   -3.1870    1.5730 O.3   501  3D1501501   -0.3457
      5 C3'         9.3860   -1.5720    0.7720 C.3   501  3D1501501    0.1135
      6 O3'        10.7180   -1.0980    0.8440 O.3   501  3D1501501   -0.3864
      7 C2'         9.2450   -2.6510   -0.3450 C.3   501  3D1501501    0.1285
      8 C1'         8.1610   -3.5760    0.1520 C.3   501  3D1501501    0.1667
      9 N1          3.1505   -4.0810    1.0837 N.ar  501  3D1501501   -0.2188
     10 C2          4.2298   -4.4189    1.8167 C.ar  501  3D1501501    0.1205
     11 N3          5.5111   -4.2538    1.4893 N.ar  501  3D1501501   -0.2159
     12 C4          5.6420   -3.6975    0.2698 C.ar  501  3D1501501    0.1674
     13 C5          4.6465   -3.2968   -0.5835 C.ar  501  3D1501501    0.1473
     14 C6          3.3162   -3.4399   -0.1113 C.ar  501  3D1501501    0.1472
     15 N6          2.2470   -2.9380   -0.7440 N.pl3 501  3D1501501   -0.3413
     16 N7          5.1564   -2.7795   -1.7641 N.ar  501  3D1501501   -0.2306
     17 C8          6.4612   -2.8744   -1.6218 C.ar  501  3D1501501    0.1004
     18 N9          6.8170   -3.4220   -0.4010 N.ar  501  3D1501501   -0.2855
     19 H5*1        9.3787   -0.8546    3.5159 H       1  A11         0.0584
     20 H5*2        8.2781   -2.1594    4.0189 H       1  A11         0.0584
     21 H5*         7.6394   -0.0305    2.2602 H       1  A11         0.2095
     22 H4*         9.8413   -2.8665    2.4469 H       1  A11         0.0647
     23 H3*         8.7814   -0.7045    0.6081 H       1  A11         0.0647
     24 H3*        11.3192   -1.8445    0.9929 H       1  A11         0.2100
     25 H2*         8.9601   -2.1994   -1.2723 H       1  A11         0.0665
     26 O2*        10.1645   -3.1663   -0.5291 O.3     1  A11        -0.3847
     27 H1*         8.5360   -4.5488   -0.0885 H       1  A11         0.0866
     28 H2          4.0433   -4.8541    2.7337 H       1  A11         0.1048
     29 H61         1.3463   -3.0690   -0.3685 H       1  A11         0.1438
     30 H62         2.3620   -2.4384   -1.5844 H       1  A11         0.1438
     31 H8          7.1412   -2.5750   -2.3379 H       1  A11         0.1030
     32 H2*        10.4644   -3.5945    0.2880 H       1  A11         0.2101
@<TRIPOS>BOND
     1    15    14    1
     2    14     9   ar
     3    14    13   ar
     4     9    10   ar
     5    13    16   ar
     6    13    12   ar
     7    16    17   ar
     8    10    11   ar
     9    12    11   ar
    10    12    18   ar
    11    17    18   ar
    12    18     8    1
    13     7     8    1
    14     7     5    1
    15     8     4    1
    16     5     6    1
    17     5     3    1
    18     4     3    1
    19     3     1    1
    20     2     1    1
    21     1    19    1
    22     1    20    1
    23     2    21    1
    24     3    22    1
    25     5    23    1
    26     6    24    1
    27     7    25    1
    28     7    26    1
    29     8    27    1
    30    10    28    1
    31    15    29    1
    32    15    30    1
    33    17    31    1
    34    26    32    1
@<TRIPOS>MOLECULE
*****
 32 34 0 0 0
SMALL
GASTEIGER

@<TRIPOS>ATOM
      1 C5'         8.5610   -1.4860    3.2370 C.3   501  3D1501501    0.0730
      2 O5'         8.2247   -2.2455    4.4050 O.3   501  3D1501501   -0.3924
      3 C4'         8.9980   -2.3440    2.0460 C.3   501  3D1501501    0.1126
      4 O4'         7.8980   -3.1870    1.5730 O.3   501  3D1501501   -0.3457
      5 C3'         9.3860   -1.5720    0.7720 C.3   501  3D1501501    0.1135
      6 O3'        10.7180   -1.0980    0.8440 O.3   501  3D1501501   -0.3864
      7 C2'         9.2450   -2.6510   -0.3450 C.3   501  3D1501501    0.1285
      8 C1'         8.1610   -3.5760    0.1520 C.3   501  3D1501501    0.1667
      9 N1          5.4416   -2.1516   -3.9473 N.ar  501  3D1501501   -0.2188
     10 C2          6.7629   -2.0855   -3.6899 C.ar  501  3D1501501    0.1205
     11 N3          7.3893   -2.4789   -2.5812 N.ar  501  3D1501501   -0.2159
     12 C4          6.5244   -2.9653   -1.6708 C.ar  501  3D1501501    0.1674
     13 C5          5.1653   -3.1011   -1.7899 C.ar  501  3D1501501    0.1473
     14 C6          4.6018   -2.7295   -3.0379 C.ar  501  3D1501501    0.1472
     15 N6          3.3263   -2.9647   -3.3748 N.pl3 501  3D1501501   -0.3413
     16 N7          4.5969   -3.6273   -0.6403 N.ar  501  3D1501501   -0.2306
     17 C8          5.6163   -3.8032    0.1731 C.ar  501  3D1501501    0.1004
     18 N9          6.8170   -3.4220   -0.4010 N.ar  501  3D1501501   -0.2855
     19 H5*1        7.7027   -0.9171    2.9460 H       1  A11         0.0584
     20 H5*2        9.3940   -0.8669    3.4972 H       1  A11         0.0584
     21 H5*         7.4700   -2.8224    4.2093 H       1  A11         0.2095
     22 H4*         9.8413   -2.8665    2.4469 H       1  A11         0.0647
     23 H3*         8.7814   -0.7045    0.6081 H       1  A11         0.0647
     24 H3*        11.3192   -1.8445    0.9929 H       1  A11         0.2100
     25 H2*         8.9601   -2.1994   -1.2723 H       1  A11         0.0665
     26 O2*        10.1645   -3.1663   -0.5291 O.3     1  A11        -0.3847
     27 H1*         8.5360   -4.5488   -0.0885 H       1  A11         0.0866
     28 H2          7.3557   -1.6858   -4.4341 H       1  A11         0.1048
     29 H61         2.9902   -2.6837   -4.2564 H       1  A11         0.1438
     30 H62         2.7254   -3.4186   -2.7407 H       1  A11         0.1438
     31 H8          5.5305   -4.1819    1.1292 H       1  A11         0.1030
     32 H2*        10.4644   -3.5945    0.2880 H       1  A11         0.2101
@<TRIPOS>BOND
     1    15    14    1
     2    14     9   ar
     3    14    13   ar
     4     9    10   ar
     5    13    16   ar
     6    13    12   ar
     7    16    17   ar
     8    10    11   ar
     9    12    11   ar
    10    12    18   ar
    11    17    18   ar
    12    18     8    1
    13     7     8    1
    14     7     5    1
    15     8     4    1
    16     5     6    1
    17     5     3    1
    18     4     3    1
    19     3     1    1
    20     2     1    1
    21     1    19    1
    22     1    20    1
    23     2    21    1
    24     3    22    1
    25     5    23    1
    26     6    24    1
    27     7    25    1
    28     7    26    1
    29     8    27    1
    30    10    28    1
    31    15    29    1
    32    15    30    1
    33    17    31    1
    34    26    32    1
@<TRIPOS>MOLECULE
*****
 32 34 0 0 0
SMALL
GASTEIGER

@<TRIPOS>ATOM
      1 C5'         8.5610   -1.4860    3.2370 C.3   501  3D1501501    0.0730
      2 O5'         8.2247   -2.2455    4.4050 O.3   501  3D1501501   -0.3924
      3 C4'         8.9980   -2.3440    2.0460 C.3   501  3D1501501    0.1126
      4 O4'         7.8980   -3.1870    1.5730 O.3   501  3D1501501   -0.3457
      5 C3'         9.3860   -1.5720    0.7720 C.3   501  3D1501501    0.1135
      6 O3'        10.7180   -1.0980    0.8440 O.3   501  3D1501501   -0.3864
      7 C2'         9.2450   -2.6510   -0.3450 C.3   501  3D1501501    0.1285
      8 C1'         8.1610   -3.5760    0.1520 C.3   501  3D1501501    0.1667
      9 N1          5.3446   -3.6359   -4.1250 N.ar  501  3D1501501   -0.2188
     10 C2          6.6760   -3.7267   -3.9355 C.ar  501  3D1501501    0.1205
     11 N3          7.3294   -3.6958   -2.7744 N.ar  501  3D1501501   -0.2159
     12 C4          6.4859   -3.5370   -1.7366 C.ar  501  3D1501501    0.1674
     13 C5          5.1189   -3.4371   -1.7709 C.ar  501  3D1501501    0.1473
     14 C6          4.5098   -3.5621   -3.0462 C.ar  501  3D1501501    0.1472
     15 N6          3.1862   -3.6635   -3.2287 N.pl3 501  3D1501501   -0.3413
     16 N7          4.5825   -3.2646   -0.5044 N.ar  501  3D1501501   -0.2306
     17 C8          5.6301   -3.2557    0.2920 C.ar  501  3D1501501    0.1004
     18 N9          6.8170   -3.4220   -0.4010 N.ar  501  3D1501501   -0.2855
     19 H5*1        7.7027   -0.9171    2.9460 H       1  A11         0.0584
     20 H5*2        9.3940   -0.8669    3.4972 H       1  A11         0.0584
     21 H5*         7.4700   -2.8224    4.2093 H       1  A11         0.2095
     22 H4*         9.8413   -2.8665    2.4469 H       1  A11         0.0647
     23 H3*         8.7814   -0.7045    0.6081 H       1  A11         0.0647
     24 H3*        11.3192   -1.8445    0.9929 H       1  A11         0.2100
     25 H2*         8.9601   -2.1994   -1.2723 H       1  A11         0.0665
     26 O2*        10.1645   -3.1663   -0.5291 O.3     1  A11        -0.3847
     27 H1*         8.5360   -4.5488   -0.0885 H       1  A11         0.0866
     28 H2          7.2538   -3.8318   -4.7841 H       1  A11         0.1048
     29 H61         2.8197   -3.7481   -4.1386 H       1  A11         0.1438
     30 H62         2.5801   -3.6534   -2.4529 H       1  A11         0.1438
     31 H8          5.5733   -3.1383    1.3157 H       1  A11         0.1030
     32 H2*        10.4644   -3.5945    0.2880 H       1  A11         0.2101
@<TRIPOS>BOND
     1    15    14    1
     2    14     9   ar
     3    14    13   ar
     4     9    10   ar
     5    13    16   ar
     6    13    12   ar
     7    16    17   ar
     8    10    11   ar
     9    12    11   ar
    10    12    18   ar
    11    17    18   ar
    12    18     8    1
    13     7     8    1
    14     7     5    1
    15     8     4    1
    16     5     6    1
    17     5     3    1
    18     4     3    1
    19     3     1    1
    20     2     1    1
    21     1    19    1
    22     1    20    1
    23     2    21    1
    24     3    22    1
    25     5    23    1
    26     6    24    1
    27     7    25    1
    28     7    26    1
    29     8    27    1
    30    10    28    1
    31    15    29    1
    32    15    30    1
    33    17    31    1
    34    26    32    1
@<TRIPOS>MOLECULE
*****
 32 34 0 0 0
SMALL
GASTEIGER

@<TRIPOS>ATOM
      1 C5'         8.5610   -1.4860    3.2370 C.3   501  3D1501501    0.0730
      2 O5'         7.4225   -0.6582    2.9672 O.3   501  3D1501501   -0.3924
      3 C4'         8.9980   -2.3440    2.0460 C.3   501  3D1501501    0.1126
      4 O4'         7.8980   -3.1870    1.5730 O.3   501  3D1501501   -0.3457
      5 C3'         9.3860   -1.5720    0.7720 C.3   501  3D1501501    0.1135
      6 O3'        10.7180   -1.0980    0.8440 O.3   501  3D1501501   -0.3864
      7 C2'         9.2450   -2.6510   -0.3450 C.3   501  3D1501501    0.1285
      8 C1'         8.1610   -3.5760    0.1520 C.3   501  3D1501501    0.1667
      9 N1          5.4416   -2.1516   -3.9473 N.ar  501  3D1501501   -0.2188
     10 C2          6.7629   -2.0855   -3.6899 C.ar  501  3D1501501    0.1205
     11 N3          7.3893   -2.4789   -2.5812 N.ar  501  3D1501501   -0.2159
     12 C4          6.5244   -2.9653   -1.6708 C.ar  501  3D1501501    0.1674
     13 C5          5.1653   -3.1011   -1.7899 C.ar  501  3D1501501    0.1473
     14 C6          4.6018   -2.7295   -3.0379 C.ar  501  3D1501501    0.1472
     15 N6          3.3263   -2.9647   -3.3748 N.pl3 501  3D1501501   -0.3413
     16 N7          4.5969   -3.6273   -0.6403 N.ar  501  3D1501501   -0.2306
     17 C8          5.6163   -3.8032    0.1731 C.ar  501  3D1501501    0.1004
     18 N9          6.8170   -3.4220   -0.4010 N.ar  501  3D1501501   -0.2855
     19 H5*1        9.3787   -0.8546    3.5159 H       1  A11         0.0584
     20 H5*2        8.2781   -2.1594    4.0189 H       1  A11         0.0584
     21 H5*         7.6394   -0.0305    2.2602 H       1  A11         0.2095
     22 H4*         9.8413   -2.8665    2.4469 H       1  A11         0.0647
     23 H3*         8.7814   -0.7045    0.6081 H       1  A11         0.0647
     24 H3*        11.3192   -1.8445    0.9929 H       1  A11         0.2100
     25 H2*         8.9601   -2.1994   -1.2723 H       1  A11         0.0665
     26 O2*        10.1645   -3.1663   -0.5291 O.3     1  A11        -0.3847
     27 H1*         8.5360   -4.5488   -0.0885 H       1  A11         0.0866
     28 H2          7.3557   -1.6858   -4.4341 H       1  A11         0.1048
     29 H61         2.9902   -2.6837   -4.2564 H       1  A11         0.1438
     30 H62         2.7254   -3.4186   -2.7407 H       1  A11         0.1438
     31 H8          5.5305   -4.1819    1.1292 H       1  A11         0.1030
     32 H2*        10.4644   -3.5945    0.2880 H       1  A11         0.2101
@<TRIPOS>BOND
     1    15    14    1
     2    14     9   ar
     3    14    13   ar
     4     9    10   ar
     5    13    16   ar
     6    13    12   ar
     7    16    17   ar
     8    10    11   ar
     9    12    11   ar
    10    12    18   ar
    11    17    18   ar
    12    18     8    1
    13     7     8    1
    14     7     5    1
    15     8     4    1
    16     5     6    1
    17     5     3    1
    18     4     3    1
    19     3     1    1
    20     2     1    1
    21     1    19    1
    22     1    20    1
    23     2    21    1
    24     3    22    1
    25     5    23    1
    26     6    24    1
    27     7    25    1
    28     7    26    1
    29     8    27    1
    30    10    28    1
    31    15    29    1
    32    15    30    1
    33    17    31    1
    34    26    32    1
@<TRIPOS>MOLECULE
*****
 32 34 0 0 0
SMALL
GASTEIGER

@<TRIPOS>ATOM
      1 C5'         8.5610   -1.4860    3.2370 C.3   501  3D1501501    0.0730
      2 O5'         7.4225   -0.6582    2.9672 O.3   501  3D1501501   -0.3924
      3 C4'         8.9980   -2.3440    2.0460 C.3   501  3D1501501    0.1126
      4 O4'         7.8980   -3.1870    1.5730 O.3   501  3D1501501   -0.3457
      5 C3'         9.3860   -1.5720    0.7720 C.3   501  3D1501501    0.1135
      6 O3'        10.7180   -1.0980    0.8440 O.3   501  3D1501501   -0.3864
      7 C2'         9.2450   -2.6510   -0.3450 C.3   501  3D1501501    0.1285
      8 C1'         8.1610   -3.5760    0.1520 C.3   501  3D1501501    0.1667
      9 N1          5.3446   -3.6359   -4.1250 N.ar  501  3D1501501   -0.2188
     10 C2          6.6760   -3.7267   -3.9355 C.ar  501  3D1501501    0.1205
     11 N3          7.3294   -3.6958   -2.7744 N.ar  501  3D1501501   -0.2159
     12 C4          6.4859   -3.5370   -1.7366 C.ar  501  3D1501501    0.1674
     13 C5          5.1189   -3.4371   -1.7709 C.ar  501  3D1501501    0.1473
     14 C6          4.5098   -3.5621   -3.0462 C.ar  501  3D1501501    0.1472
     15 N6          3.1862   -3.6635   -3.2287 N.pl3 501  3D1501501   -0.3413
     16 N7          4.5825   -3.2646   -0.5044 N.ar  501  3D1501501   -0.2306
     17 C8          5.6301   -3.2557    0.2920 C.ar  501  3D1501501    0.1004
     18 N9          6.8170   -3.4220   -0.4010 N.ar  501  3D1501501   -0.2855
     19 H5*1        9.3787   -0.8546    3.5159 H       1  A11         0.0584
     20 H5*2        8.2781   -2.1594    4.0189 H       1  A11         0.0584
     21 H5*         7.6394   -0.0305    2.2602 H       1  A11         0.2095
     22 H4*         9.8413   -2.8665    2.4469 H       1  A11         0.0647
     23 H3*         8.7814   -0.7045    0.6081 H       1  A11         0.0647
     24 H3*        11.3192   -1.8445    0.9929 H       1  A11         0.2100
     25 H2*         8.9601   -2.1994   -1.2723 H       1  A11         0.0665
     26 O2*        10.1645   -3.1663   -0.5291 O.3     1  A11        -0.3847
     27 H1*         8.5360   -4.5488   -0.0885 H       1  A11         0.0866
     28 H2          7.2538   -3.8318   -4.7841 H       1  A11         0.1048
     29 H61         2.8197   -3.7481   -4.1386 H       1  A11         0.1438
     30 H62         2.5801   -3.6534   -2.4529 H       1  A11         0.1438
     31 H8          5.5733   -3.1383    1.3157 H       1  A11         0.1030
     32 H2*        10.4644   -3.5945    0.2880 H       1  A11         0.2101
@<TRIPOS>BOND
     1    15    14    1
     2    14     9   ar
     3    14    13   ar
     4     9    10   ar
     5    13    16   ar
     6    13    12   ar
     7    16    17   ar
     8    10    11   ar
     9    12    11   ar
    10    12    18   ar
    11    17    18   ar
    12    18     8    1
    13     7     8    1
    14     7     5    1
    15     8     4    1
    16     5     6    1
    17     5     3    1
    18     4     3    1
    19     3     1    1
    20     2     1    1
    21     1    19    1
    22     1    20    1
    23     2    21    1
    24     3    22    1
    25     5    23    1
    26     6    24    1
    27     7    25    1
    28     7    26    1
    29     8    27    1
    30    10    28    1
    31    15    29    1
    32    15    30    1
    33    17    31    1
    34    26    32    1
@<TRIPOS>MOLECULE
*****
 32 34 0 0 0
SMALL
GASTEIGER

@<TRIPOS>ATOM
      1 C5'         8.5610   -1.4860    3.2370 C.3   501  3D1501501    0.0730
      2 O5'         9.5709   -0.5801    3.6993 O.3   501  3D1501501   -0.3924
      3 C4'         8.9980   -2.3440    2.0460 C.3   501  3D1501501    0.1126
      4 O4'         7.8980   -3.1870    1.5730 O.3   501  3D1501501   -0.3457
      5 C3'         9.3860   -1.5720    0.7720 C.3   501  3D1501501    0.1135
      6 O3'        10.7180   -1.0980    0.8440 O.3   501  3D1501501   -0.3864
      7 C2'         9.2450   -2.6510   -0.3450 C.3   501  3D1501501    0.1285
      8 C1'         8.1610   -3.5760    0.1520 C.3   501  3D1501501    0.1667
      9 N1          5.3446   -3.6359   -4.1250 N.ar  501  3D1501501   -0.2188
     10 C2          6.6760   -3.7267   -3.9355 C.ar  501  3D1501501    0.1205
     11 N3          7.3294   -3.6958   -2.7744 N.ar  501  3D1501501   -0.2159
     12 C4          6.4859   -3.5370   -1.7366 C.ar  501  3D1501501    0.1674
     13 C5          5.1189   -3.4371   -1.7709 C.ar  501  3D1501501    0.1473
     14 C6          4.5098   -3.5621   -3.0462 C.ar  501  3D1501501    0.1472
     15 N6          3.1862   -3.6635   -3.2287 N.pl3 501  3D1501501   -0.3413
     16 N7          4.5825   -3.2646   -0.5044 N.ar  501  3D1501501   -0.2306
     17 C8          5.6301   -3.2557    0.2920 C.ar  501  3D1501501    0.1004
     18 N9          6.8170   -3.4220   -0.4010 N.ar  501  3D1501501   -0.2855
     19 H5*1        8.2977   -2.1378    4.0437 H       1  A11         0.0584
     20 H5*2        7.7362   -0.8902    2.9057 H       1  A11         0.0584
     21 H5*        10.3395   -1.0838    4.0097 H       1  A11         0.2095
     22 H4*         9.8413   -2.8665    2.4469 H       1  A11         0.0647
     23 H3*         8.7814   -0.7045    0.6081 H       1  A11         0.0647
     24 H3*        11.3192   -1.8445    0.9929 H       1  A11         0.2100
     25 H2*         8.9601   -2.1994   -1.2723 H       1  A11         0.0665
     26 O2*        10.1645   -3.1663   -0.5291 O.3     1  A11        -0.3847
     27 H1*         8.5360   -4.5488   -0.0885 H       1  A11         0.0866
     28 H2          7.2538   -3.8318   -4.7841 H       1  A11         0.1048
     29 H61         2.8197   -3.7481   -4.1386 H       1  A11         0.1438
     30 H62         2.5801   -3.6534   -2.4529 H       1  A11         0.1438
     31 H8          5.5733   -3.1383    1.3157 H       1  A11         0.1030
     32 H2*        10.4644   -3.5945    0.2880 H       1  A11         0.2101
@<TRIPOS>BOND
     1    15    14    1
     2    14     9   ar
     3    14    13   ar
     4     9    10   ar
     5    13    16   ar
     6    13    12   ar
     7    16    17   ar
     8    10    11   ar
     9    12    11   ar
    10    12    18   ar
    11    17    18   ar
    12    18     8    1
    13     7     8    1
    14     7     5    1
    15     8     4    1
    16     5     6    1
    17     5     3    1
    18     4     3    1
    19     3     1    1
    20     2     1    1
    21     1    19    1
    22     1    20    1
    23     2    21    1
    24     3    22    1
    25     5    23    1
    26     6    24    1
    27     7    25    1
    28     7    26    1
    29     8    27    1
    30    10    28    1
    31    15    29    1
    32    15    30    1
    33    17    31    1
    34    26    32    1
@<TRIPOS>MOLECULE
*****
 32 34 0 0 0
SMALL
GASTEIGER

@<TRIPOS>ATOM
      1 C5'         8.5610   -1.4860    3.2370 C.3   501  3D1501501    0.0730
      2 O5'         9.5709   -0.5801    3.6993 O.3   501  3D1501501   -0.3924
      3 C4'         8.9980   -2.3440    2.0460 C.3   501  3D1501501    0.1126
      4 O4'         7.8980   -3.1870    1.5730 O.3   501  3D1501501   -0.3457
      5 C3'         9.3860   -1.5720    0.7720 C.3   501  3D1501501    0.1135
      6 O3'        10.7180   -1.0980    0.8440 O.3   501  3D1501501   -0.3864
      7 C2'         9.2450   -2.6510   -0.3450 C.3   501  3D1501501    0.1285
      8 C1'         8.1610   -3.5760    0.1520 C.3   501  3D1501501    0.1667
      9 N1          5.4416   -2.1516   -3.9473 N.ar  501  3D1501501   -0.2188
     10 C2          6.7629   -2.0855   -3.6899 C.ar  501  3D1501501    0.1205
     11 N3          7.3893   -2.4789   -2.5812 N.ar  501  3D1501501   -0.2159
     12 C4          6.5244   -2.9653   -1.6708 C.ar  501  3D1501501    0.1674
     13 C5          5.1653   -3.1011   -1.7899 C.ar  501  3D1501501    0.1473
     14 C6          4.6018   -2.7295   -3.0379 C.ar  501  3D1501501    0.1472
     15 N6          3.3263   -2.9647   -3.3748 N.pl3 501  3D1501501   -0.3413
     16 N7          4.5969   -3.6273   -0.6403 N.ar  501  3D1501501   -0.2306
     17 C8          5.6163   -3.8032    0.1731 C.ar  501  3D1501501    0.1004
     18 N9          6.8170   -3.4220   -0.4010 N.ar  501  3D1501501   -0.2855
     19 H5*1        8.2977   -2.1378    4.0437 H       1  A11         0.0584
     20 H5*2        7.7362   -0.8902    2.9057 H       1  A11         0.0584
     21 H5*        10.3395   -1.0838    4.0097 H       1  A11         0.2095
     22 H4*         9.8413   -2.8665    2.4469 H       1  A11         0.0647
     23 H3*         8.7814   -0.7045    0.6081 H       1  A11         0.0647
     24 H3*        11.3192   -1.8445    0.9929 H       1  A11         0.2100
     25 H2*         8.9601   -2.1994   -1.2723 H       1  A11         0.0665
     26 O2*        10.1645   -3.1663   -0.5291 O.3     1  A11        -0.3847
     27 H1*         8.5360   -4.5488   -0.0885 H       1  A11         0.0866
     28 H2          7.3557   -1.6858   -4.4341 H       1  A11         0.1048
     29 H61         2.9902   -2.6837   -4.2564 H       1  A11         0.1438
     30 H62         2.7254   -3.4186   -2.7407 H       1  A11         0.1438
     31 H8          5.5305   -4.1819    1.1292 H       1  A11         0.1030
     32 H2*        10.4644   -3.5945    0.2880 H       1  A11         0.2101
@<TRIPOS>BOND
     1    15    14    1
     2    14     9   ar
     3    14    13   ar
     4     9    10   ar
     5    13    16   ar
     6    13    12   ar
     7    16    17   ar
     8    10    11   ar
     9    12    11   ar
    10    12    18   ar
    11    17    18   ar
    12    18     8    1
    13     7     8    1
    14     7     5    1
    15     8     4    1
    16     5     6    1
    17     5     3    1
    18     4     3    1
    19     3     1    1
    20     2     1    1
    21     1    19    1
    22     1    20    1
    23     2    21    1
    24     3    22    1
    25     5    23    1
    26     6    24    1
    27     7    25    1
    28     7    26    1
    29     8    27    1
    30    10    28    1
    31    15    29    1
    32    15    30    1
    33    17    31    1
    34    26    32    1
@<TRIPOS>MOLECULE
*****
 32 34 0 0 0
SMALL
GASTEIGER

@<TRIPOS>ATOM
      1 C5'         8.5610   -1.4860    3.2370 C.3   501  3D1501501    0.0730
      2 O5'         8.2247   -2.2455    4.4050 O.3   501  3D1501501   -0.3924
      3 C4'         8.9980   -2.3440    2.0460 C.3   501  3D1501501    0.1126
      4 O4'         7.8980   -3.1870    1.5730 O.3   501  3D1501501   -0.3457
      5 C3'         9.3860   -1.5720    0.7720 C.3   501  3D1501501    0.1135
      6 O3'        10.7180   -1.0980    0.8440 O.3   501  3D1501501   -0.3864
      7 C2'         9.2450   -2.6510   -0.3450 C.3   501  3D1501501    0.1285
      8 C1'         8.1610   -3.5760    0.1520 C.3   501  3D1501501    0.1667
      9 N1          3.8169   -5.9977   -1.0696 N.ar  501  3D1501501   -0.2188
     10 C2          5.0023   -6.4650   -0.6305 C.ar  501  3D1501501    0.1205
     11 N3          6.0919   -5.7546   -0.3402 N.ar  501  3D1501501   -0.2159
     12 C4          5.8967   -4.4397   -0.5559 C.ar  501  3D1501501    0.1674
     13 C5          4.7543   -3.8188   -0.9910 C.ar  501  3D1501501    0.1473
     14 C6          3.6237   -4.6511   -1.1960 C.ar  501  3D1501501    0.1472
     15 N6          2.3939   -4.1823   -1.4478 N.pl3 501  3D1501501   -0.3413
     16 N7          4.9265   -2.4488   -1.1132 N.ar  501  3D1501501   -0.2306
     17 C8          6.1767   -2.2468   -0.7555 C.ar  501  3D1501501    0.1004
     18 N9          6.8170   -3.4220   -0.4010 N.ar  501  3D1501501   -0.2855
     19 H5*1        7.7027   -0.9171    2.9460 H       1  A11         0.0584
     20 H5*2        9.3940   -0.8669    3.4972 H       1  A11         0.0584
     21 H5*         7.4700   -2.8224    4.2093 H       1  A11         0.2095
     22 H4*         9.8413   -2.8665    2.4469 H       1  A11         0.0647
     23 H3*         8.7814   -0.7045    0.6081 H       1  A11         0.0647
     24 H3*        11.3192   -1.8445    0.9929 H       1  A11         0.2100
     25 H2*         8.9601   -2.1994   -1.2723 H       1  A11         0.0665
     26 O2*        10.1645   -3.1663   -0.5291 O.3     1  A11        -0.3847
     27 H1*         8.5360   -4.5488   -0.0885 H       1  A11         0.0866
     28 H2          5.0744   -7.4869   -0.5052 H       1  A11         0.1048
     29 H61         1.6462   -4.8086   -1.5817 H       1  A11         0.1438
     30 H62         2.2382   -3.2116   -1.4988 H       1  A11         0.1438
     31 H8          6.6280   -1.3189   -0.7409 H       1  A11         0.1030
     32 H2*        10.4644   -3.5945    0.2880 H       1  A11         0.2101
@<TRIPOS>BOND
     1    15    14    1
     2    14     9   ar
     3    14    13   ar
     4     9    10   ar
     5    13    16   ar
     6    13    12   ar
     7    16    17   ar
     8    10    11   ar
     9    12    11   ar
    10    12    18   ar
    11    17    18   ar
    12    18     8    1
    13     7     8    1
    14     7     5    1
    15     8     4    1
    16     5     6    1
    17     5     3    1
    18     4     3    1
    19     3     1    1
    20     2     1    1
    21     1    19    1
    22     1    20    1
    23     2    21    1
    24     3    22    1
    25     5    23    1
    26     6    24    1
    27     7    25    1
    28     7    26    1
    29     8    27    1
    30    10    28    1
    31    15    29    1
    32    15    30    1
    33    17    31    1
    34    26    32    1
@<TRIPOS>MOLECULE
*****
 32 34 0 0 0
SMALL
GASTEIGER

@<TRIPOS>ATOM
      1 C5'         8.5610   -1.4860    3.2370 C.3   501  3D1501501    0.0730
      2 O5'         9.5709   -0.5801    3.6993 O.3   501  3D1501501   -0.3924
      3 C4'         8.9980   -2.3440    2.0460 C.3   501  3D1501501    0.1126
      4 O4'         7.8980   -3.1870    1.5730 O.3   501  3D1501501   -0.3457
      5 C3'         9.3860   -1.5720    0.7720 C.3   501  3D1501501    0.1135
      6 O3'        10.7180   -1.0980    0.8440 O.3   501  3D1501501   -0.3864
      7 C2'         9.2450   -2.6510   -0.3450 C.3   501  3D1501501    0.1285
      8 C1'         8.1610   -3.5760    0.1520 C.3   501  3D1501501    0.1667
      9 N1          4.1826   -0.3985   -0.3992 N.ar  501  3D1501501   -0.2188
     10 C2          5.3304   -0.2741    0.2963 C.ar  501  3D1501501    0.1205
     11 N3          6.3181   -1.1641    0.3885 N.ar  501  3D1501501   -0.2159
     12 C4          6.0417   -2.2832   -0.3077 C.ar  501  3D1501501    0.1674
     13 C5          4.9290   -2.5514   -1.0627 C.ar  501  3D1501501    0.1473
     14 C6          3.9707   -1.5101   -1.1646 C.ar  501  3D1501501    0.1472
     15 N6          2.9228   -1.5461   -1.9989 N.pl3 501  3D1501501   -0.3413
     16 N7          4.9806   -3.8170   -1.6258 N.ar  501  3D1501501   -0.2306
     17 C8          6.1246   -4.3121   -1.2040 C.ar  501  3D1501501    0.1004
     18 N9          6.8170   -3.4220   -0.4010 N.ar  501  3D1501501   -0.2855
     19 H5*1        8.2977   -2.1378    4.0437 H       1  A11         0.0584
     20 H5*2        7.7362   -0.8902    2.9057 H       1  A11         0.0584
     21 H5*        10.3395   -1.0838    4.0097 H       1  A11         0.2095
     22 H4*         9.8413   -2.8665    2.4469 H       1  A11         0.0647
     23 H3*         8.7814   -0.7045    0.6081 H       1  A11         0.0647
     24 H3*        11.3192   -1.8445    0.9929 H       1  A11         0.2100
     25 H2*         8.9601   -2.1994   -1.2723 H       1  A11         0.0665
     26 O2*        10.1645   -3.1663   -0.5291 O.3     1  A11        -0.3847
     27 H1*         8.5360   -4.5488   -0.0885 H       1  A11         0.0866
     28 H2          5.4587    0.6087    0.8152 H       1  A11         0.1048
     29 H61         2.2893   -0.7930   -2.0264 H       1  A11         0.1438
     30 H62         2.7863   -2.3258   -2.5843 H       1  A11         0.1438
     31 H8          6.4663   -5.2557   -1.4443 H       1  A11         0.1030
     32 H2*        10.4644   -3.5945    0.2880 H       1  A11         0.2101
@<TRIPOS>BOND
     1    15    14    1
     2    14     9   ar
     3    14    13   ar
     4     9    10   ar
     5    13    16   ar
     6    13    12   ar
     7    16    17   ar
     8    10    11   ar
     9    12    11   ar
    10    12    18   ar
    11    17    18   ar
    12    18     8    1
    13     7     8    1
    14     7     5    1
    15     8     4    1
    16     5     6    1
    17     5     3    1
    18     4     3    1
    19     3     1    1
    20     2     1    1
    21     1    19    1
    22     1    20    1
    23     2    21    1
    24     3    22    1
    25     5    23    1
    26     6    24    1
    27     7    25    1
    28     7    26    1
    29     8    27    1
    30    10    28    1
    31    15    29    1
    32    15    30    1
    33    17    31    1
    34    26    32    1
@<TRIPOS>MOLECULE
*****
 32 34 0 0 0
SMALL
GASTEIGER

@<TRIPOS>ATOM
      1 C5'         8.5610   -1.4860    3.2370 C.3   501  3D1501501    0.0730
      2 O5'         9.5709   -0.5801    3.6993 O.3   501  3D1501501   -0.3924
      3 C4'         8.9980   -2.3440    2.0460 C.3   501  3D1501501    0.1126
      4 O4'         7.8980   -3.1870    1.5730 O.3   501  3D1501501   -0.3457
      5 C3'         9.3860   -1.5720    0.7720 C.3   501  3D1501501    0.1135
      6 O3'        10.7180   -1.0980    0.8440 O.3   501  3D1501501   -0.3864
      7 C2'         9.2450   -2.6510   -0.3450 C.3   501  3D1501501    0.1285
      8 C1'         8.1610   -3.5760    0.1520 C.3   501  3D1501501    0.1667
      9 N1          3.3465   -5.3186    0.2627 N.ar  501  3D1501501   -0.2188
     10 C2          4.4668   -5.7617    0.8669 C.ar  501  3D1501501    0.1205
     11 N3          5.6913   -5.2438    0.7757 N.ar  501  3D1501501   -0.2159
     12 C4          5.7164   -4.1755   -0.0441 C.ar  501  3D1501501    0.1674
     13 C5          4.6665   -3.6078   -0.7188 C.ar  501  3D1501501    0.1473
     14 C6          3.3886   -4.1818   -0.4938 C.ar  501  3D1501501    0.1472
     15 N6          2.2448   -3.6403   -0.9343 N.pl3 501  3D1501501   -0.3413
     16 N7          5.0705   -2.5253   -1.4845 N.ar  501  3D1501501   -0.2306
     17 C8          6.3670   -2.4457   -1.2734 C.ar  501  3D1501501    0.1004
     18 N9          6.8170   -3.4220   -0.4010 N.ar  501  3D1501501   -0.2855
     19 H5*1        8.2977   -2.1378    4.0437 H       1  A11         0.0584
     20 H5*2        7.7362   -0.8902    2.9057 H       1  A11         0.0584
     21 H5*        10.3395   -1.0838    4.0097 H       1  A11         0.2095
     22 H4*         9.8413   -2.8665    2.4469 H       1  A11         0.0647
     23 H3*         8.7814   -0.7045    0.6081 H       1  A11         0.0647
     24 H3*        11.3192   -1.8445    0.9929 H       1  A11         0.2100
     25 H2*         8.9601   -2.1994   -1.2723 H       1  A11         0.0665
     26 O2*        10.1645   -3.1663   -0.5291 O.3     1  A11        -0.3847
     27 H1*         8.5360   -4.5488   -0.0885 H       1  A11         0.0866
     28 H2          4.3650   -6.5951    1.4672 H       1  A11         0.1048
     29 H61         1.3861   -4.0842   -0.7478 H       1  A11         0.1438
     30 H62         2.2632   -2.7985   -1.4445 H       1  A11         0.1438
     31 H8          6.9781   -1.7369   -1.7081 H       1  A11         0.1030
     32 H2*        10.4644   -3.5945    0.2880 H       1  A11         0.2101
@<TRIPOS>BOND
     1    15    14    1
     2    14     9   ar
     3    14    13   ar
     4     9    10   ar
     5    13    16   ar
     6    13    12   ar
     7    16    17   ar
     8    10    11   ar
     9    12    11   ar
    10    12    18   ar
    11    17    18   ar
    12    18     8    1
    13     7     8    1
    14     7     5    1
    15     8     4    1
    16     5     6    1
    17     5     3    1
    18     4     3    1
    19     3     1    1
    20     2     1    1
    21     1    19    1
    22     1    20    1
    23     2    21    1
    24     3    22    1
    25     5    23    1
    26     6    24    1
    27     7    25    1
    28     7    26    1
    29     8    27    1
    30    10    28    1
    31    15    29    1
    32    15    30    1
    33    17    31    1
    34    26    32    1
@<TRIPOS>MOLECULE
*****
 32 34 0 0 0
SMALL
GASTEIGER

@<TRIPOS>ATOM
      1 C5'         8.5610   -1.4860    3.2370 C.3   501  3D1501501    0.0730
      2 O5'         9.5709   -0.5801    3.6993 O.3   501  3D1501501   -0.3924
      3 C4'         8.9980   -2.3440    2.0460 C.3   501  3D1501501    0.1126
      4 O4'         7.8980   -3.1870    1.5730 O.3   501  3D1501501   -0.3457
      5 C3'         9.3860   -1.5720    0.7720 C.3   501  3D1501501    0.1135
      6 O3'        10.7180   -1.0980    0.8440 O.3   501  3D1501501   -0.3864
      7 C2'         9.2450   -2.6510   -0.3450 C.3   501  3D1501501    0.1285
      8 C1'         8.1610   -3.5760    0.1520 C.3   501  3D1501501    0.1667
      9 N1          3.1505   -4.0810    1.0837 N.ar  501  3D1501501   -0.2188
     10 C2          4.2298   -4.4189    1.8167 C.ar  501  3D1501501    0.1205
     11 N3          5.5111   -4.2538    1.4893 N.ar  501  3D1501501   -0.2159
     12 C4          5.6420   -3.6975    0.2698 C.ar  501  3D1501501    0.1674
     13 C5          4.6465   -3.2968   -0.5835 C.ar  501  3D1501501    0.1473
     14 C6          3.3162   -3.4399   -0.1113 C.ar  501  3D1501501    0.1472
     15 N6          2.2470   -2.9380   -0.7440 N.pl3 501  3D1501501   -0.3413
     16 N7          5.1564   -2.7795   -1.7641 N.ar  501  3D1501501   -0.2306
     17 C8          6.4612   -2.8744   -1.6218 C.ar  501  3D1501501    0.1004
     18 N9          6.8170   -3.4220   -0.4010 N.ar  501  3D1501501   -0.2855
     19 H5*1        8.2977   -2.1378    4.0437 H       1  A11         0.0584
     20 H5*2        7.7362   -0.8902    2.9057 H       1  A11         0.0584
     21 H5*        10.3395   -1.0838    4.0097 H       1  A11         0.2095
     22 H4*         9.8413   -2.8665    2.4469 H       1  A11         0.0647
     23 H3*         8.7814   -0.7045    0.6081 H       1  A11         0.0647
     24 H3*        11.3192   -1.8445    0.9929 H       1  A11         0.2100
     25 H2*         8.9601   -2.1994   -1.2723 H       1  A11         0.0665
     26 O2*        10.1645   -3.1663   -0.5291 O.3     1  A11        -0.3847
     27 H1*         8.5360   -4.5488   -0.0885 H       1  A11         0.0866
     28 H2          4.0433   -4.8541    2.7337 H       1  A11         0.1048
     29 H61         1.3463   -3.0690   -0.3685 H       1  A11         0.1438
     30 H62         2.3620   -2.4384   -1.5844 H       1  A11         0.1438
     31 H8          7.1412   -2.5750   -2.3379 H       1  A11         0.1030
     32 H2*        10.4644   -3.5945    0.2880 H       1  A11         0.2101
@<TRIPOS>BOND
     1    15    14    1
     2    14     9   ar
     3    14    13   ar
     4     9    10   ar
     5    13    16   ar
     6    13    12   ar
     7    16    17   ar
     8    10    11   ar
     9    12    11   ar
    10    12    18   ar
    11    17    18   ar
    12    18     8    1
    13     7     8    1
    14     7     5    1
    15     8     4    1
    16     5     6    1
    17     5     3    1
    18     4     3    1
    19     3     1    1
    20     2     1    1
    21     1    19    1
    22     1    20    1
    23     2    21    1
    24     3    22    1
    25     5    23    1
    26     6    24    1
    27     7    25    1
    28     7    26    1
    29     8    27    1
    30    10    28    1
    31    15    29    1
    32    15    30    1
    33    17    31    1
    34    26    32    1
@<TRIPOS>MOLECULE
*****
 32 34 0 0 0
SMALL
GASTEIGER

@<TRIPOS>ATOM
      1 C5'         8.5610   -1.4860    3.2370 C.3   501  3D1501501    0.0730
      2 O5'         8.2247   -2.2455    4.4050 O.3   501  3D1501501   -0.3924
      3 C4'         8.9980   -2.3440    2.0460 C.3   501  3D1501501    0.1126
      4 O4'         7.8980   -3.1870    1.5730 O.3   501  3D1501501   -0.3457
      5 C3'         9.3860   -1.5720    0.7720 C.3   501  3D1501501    0.1135
      6 O3'        10.7180   -1.0980    0.8440 O.3   501  3D1501501   -0.3864
      7 C2'         9.2450   -2.6510   -0.3450 C.3   501  3D1501501    0.1285
      8 C1'         8.1610   -3.5760    0.1520 C.3   501  3D1501501    0.1667
      9 N1          4.9502   -5.0433   -3.5583 N.ar  501  3D1501501   -0.2188
     10 C2          6.2554   -5.3107   -3.3544 C.ar  501  3D1501501    0.1205
     11 N3          7.0210   -4.8766   -2.3537 N.ar  501  3D1501501   -0.2159
     12 C4          6.3332   -4.0775   -1.5158 C.ar  501  3D1501501    0.1674
     13 C5          5.0110   -3.7220   -1.5877 C.ar  501  3D1501501    0.1473
     14 C6          4.2596   -4.2997   -2.6436 C.ar  501  3D1501501    0.1472
     15 N6          2.9279   -4.1955   -2.7491 N.pl3 501  3D1501501   -0.3413
     16 N7          4.6497   -2.8682   -0.5573 N.ar  501  3D1501501   -0.2306
     17 C8          5.7587   -2.7063    0.1323 C.ar  501  3D1501501    0.1004
     18 N9          6.8170   -3.4220   -0.4010 N.ar  501  3D1501501   -0.2855
     19 H5*1        7.7027   -0.9171    2.9460 H       1  A11         0.0584
     20 H5*2        9.3940   -0.8669    3.4972 H       1  A11         0.0584
     21 H5*         7.4700   -2.8224    4.2093 H       1  A11         0.2095
     22 H4*         9.8413   -2.8665    2.4469 H       1  A11         0.0647
     23 H3*         8.7814   -0.7045    0.6081 H       1  A11         0.0647
     24 H3*        11.3192   -1.8445    0.9929 H       1  A11         0.2100
     25 H2*         8.9601   -2.1994   -1.2723 H       1  A11         0.0665
     26 O2*        10.1645   -3.1663   -0.5291 O.3     1  A11        -0.3847
     27 H1*         8.5360   -4.5488   -0.0885 H       1  A11         0.0866
     28 H2          6.7129   -5.9196   -4.0509 H       1  A11         0.1048
     29 H61         2.4594   -4.6180   -3.5049 H       1  A11         0.1438
     30 H62         2.4179   -3.6964   -2.0708 H       1  A11         0.1438
     31 H8          5.8312   -2.1138    0.9741 H       1  A11         0.1030
     32 H2*        10.4644   -3.5945    0.2880 H       1  A11         0.2101
@<TRIPOS>BOND
     1    15    14    1
     2    14     9   ar
     3    14    13   ar
     4     9    10   ar
     5    13    16   ar
     6    13    12   ar
     7    16    17   ar
     8    10    11   ar
     9    12    11   ar
    10    12    18   ar
    11    17    18   ar
    12    18     8    1
    13     7     8    1
    14     7     5    1
    15     8     4    1
    16     5     6    1
    17     5     3    1
    18     4     3    1
    19     3     1    1
    20     2     1    1
    21     1    19    1
    22     1    20    1
    23     2    21    1
    24     3    22    1
    25     5    23    1
    26     6    24    1
    27     7    25    1
    28     7    26    1
    29     8    27    1
    30    10    28    1
    31    15    29    1
    32    15    30    1
    33    17    31    1
    34    26    32    1
@<TRIPOS>MOLECULE
*****
 32 34 0 0 0
SMALL
GASTEIGER

@<TRIPOS>ATOM
      1 C5'         8.5610   -1.4860    3.2370 C.3   501  3D1501501    0.0730
      2 O5'         8.2247   -2.2455    4.4050 O.3   501  3D1501501   -0.3924
      3 C4'         8.9980   -2.3440    2.0460 C.3   501  3D1501501    0.1126
      4 O4'         7.8980   -3.1870    1.5730 O.3   501  3D1501501   -0.3457
      5 C3'         9.3860   -1.5720    0.7720 C.3   501  3D1501501    0.1135
      6 O3'        10.7180   -1.0980    0.8440 O.3   501  3D1501501   -0.3864
      7 C2'         9.2450   -2.6510   -0.3450 C.3   501  3D1501501    0.1285
      8 C1'         8.1610   -3.5760    0.1520 C.3   501  3D1501501    0.1667
      9 N1          4.3966   -5.8800   -2.4459 N.ar  501  3D1501501   -0.2188
     10 C2          5.6487   -6.2821   -2.1504 C.ar  501  3D1501501    0.1205
     11 N3          6.5723   -5.6072   -1.4667 N.ar  501  3D1501501   -0.2159
     12 C4          6.1197   -4.3972   -1.0860 C.ar  501  3D1501501    0.1674
     13 C5          4.8792   -3.8558   -1.3047 C.ar  501  3D1501501    0.1473
     14 C6          3.9391   -4.6834   -1.9714 C.ar  501  3D1501501    0.1472
     15 N6          2.6421   -4.3740   -2.1043 N.pl3 501  3D1501501   -0.3413
     16 N7          4.7748   -2.5770   -0.7803 N.ar  501  3D1501501   -0.2306
     17 C8          5.9571   -2.3476   -0.2498 C.ar  501  3D1501501    0.1004
     18 N9          6.8170   -3.4220   -0.4010 N.ar  501  3D1501501   -0.2855
     19 H5*1        7.7027   -0.9171    2.9460 H       1  A11         0.0584
     20 H5*2        9.3940   -0.8669    3.4972 H       1  A11         0.0584
     21 H5*         7.4700   -2.8224    4.2093 H       1  A11         0.2095
     22 H4*         9.8413   -2.8665    2.4469 H       1  A11         0.0647
     23 H3*         8.7814   -0.7045    0.6081 H       1  A11         0.0647
     24 H3*        11.3192   -1.8445    0.9929 H       1  A11         0.2100
     25 H2*         8.9601   -2.1994   -1.2723 H       1  A11         0.0665
     26 O2*        10.1645   -3.1663   -0.5291 O.3     1  A11        -0.3847
     27 H1*         8.5360   -4.5488   -0.0885 H       1  A11         0.0866
     28 H2          5.9227   -7.2167   -2.4917 H       1  A11         0.1048
     29 H61         2.0355   -4.9880   -2.5779 H       1  A11         0.1438
     30 H62         2.2958   -3.5326   -1.7283 H       1  A11         0.1438
     31 H8          6.2137   -1.4678    0.2244 H       1  A11         0.1030
     32 H2*        10.4644   -3.5945    0.2880 H       1  A11         0.2101
@<TRIPOS>BOND
     1    15    14    1
     2    14     9   ar
     3    14    13   ar
     4     9    10   ar
     5    13    16   ar
     6    13    12   ar
     7    16    17   ar
     8    10    11   ar
     9    12    11   ar
    10    12    18   ar
    11    17    18   ar
    12    18     8    1
    13     7     8    1
    14     7     5    1
    15     8     4    1
    16     5     6    1
    17     5     3    1
    18     4     3    1
    19     3     1    1
    20     2     1    1
    21     1    19    1
    22     1    20    1
    23     2    21    1
    24     3    22    1
    25     5    23    1
    26     6    24    1
    27     7    25    1
    28     7    26    1
    29     8    27    1
    30    10    28    1
    31    15    29    1
    32    15    30    1
    33    17    31    1
    34    26    32    1
@<TRIPOS>MOLECULE
*****
 32 34 0 0 0
SMALL
GASTEIGER

@<TRIPOS>ATOM
      1 C5'         8.5610   -1.4860    3.2370 C.3   501  3D1501501    0.0730
      2 O5'         9.5709   -0.5801    3.6993 O.3   501  3D1501501   -0.3924
      3 C4'         8.9980   -2.3440    2.0460 C.3   501  3D1501501    0.1126
      4 O4'         7.8980   -3.1870    1.5730 O.3   501  3D1501501   -0.3457
      5 C3'         9.3860   -1.5720    0.7720 C.3   501  3D1501501    0.1135
      6 O3'        10.7180   -1.0980    0.8440 O.3   501  3D1501501   -0.3864
      7 C2'         9.2450   -2.6510   -0.3450 C.3   501  3D1501501    0.1285
      8 C1'         8.1610   -3.5760    0.1520 C.3   501  3D1501501    0.1667
      9 N1          3.2546   -2.5952    1.2444 N.ar  501  3D1501501   -0.2188
     10 C2          4.3248   -2.7756    2.0437 C.ar  501  3D1501501    0.1205
     11 N3          5.5770   -3.0351    1.6686 N.ar  501  3D1501501   -0.2159
     12 C4          5.6832   -3.1254    0.3291 C.ar  501  3D1501501    0.1674
     13 C5          4.6943   -2.9613   -0.6064 C.ar  501  3D1501501    0.1473
     14 C6          3.4121   -2.6077   -0.1125 C.ar  501  3D1501501    0.1472
     15 N6          2.3902   -2.2416   -0.8982 N.pl3 501  3D1501501   -0.3413
     16 N7          5.1689   -3.1438   -1.8959 N.ar  501  3D1501501   -0.2306
     17 C8          6.4447   -3.4232   -1.7344 C.ar  501  3D1501501    0.1004
     18 N9          6.8170   -3.4220   -0.4010 N.ar  501  3D1501501   -0.2855
     19 H5*1        8.2977   -2.1378    4.0437 H       1  A11         0.0584
     20 H5*2        7.7362   -0.8902    2.9057 H       1  A11         0.0584
     21 H5*        10.3395   -1.0838    4.0097 H       1  A11         0.2095
     22 H4*         9.8413   -2.8665    2.4469 H       1  A11         0.0647
     23 H3*         8.7814   -0.7045    0.6081 H       1  A11         0.0647
     24 H3*        11.3192   -1.8445    0.9929 H       1  A11         0.2100
     25 H2*         8.9601   -2.1994   -1.2723 H       1  A11         0.0665
     26 O2*        10.1645   -3.1663   -0.5291 O.3     1  A11        -0.3847
     27 H1*         8.5360   -4.5488   -0.0885 H       1  A11         0.0866
     28 H2          4.1557   -2.7048    3.0593 H       1  A11         0.1048
     29 H61         1.5216   -2.0067   -0.4987 H       1  A11         0.1438
     30 H62         2.5080   -2.2075   -1.8750 H       1  A11         0.1438
     31 H8          7.0932   -3.6205   -2.5125 H       1  A11         0.1030
     32 H2*        10.4644   -3.5945    0.2880 H       1  A11         0.2101
@<TRIPOS>BOND
     1    15    14    1
     2    14     9   ar
     3    14    13   ar
     4     9    10   ar
     5    13    16   ar
     6    13    12   ar
     7    16    17   ar
     8    10    11   ar
     9    12    11   ar
    10    12    18   ar
    11    17    18   ar
    12    18     8    1
    13     7     8    1
    14     7     5    1
    15     8     4    1
    16     5     6    1
    17     5     3    1
    18     4     3    1
    19     3     1    1
    20     2     1    1
    21     1    19    1
    22     1    20    1
    23     2    21    1
    24     3    22    1
    25     5    23    1
    26     6    24    1
    27     7    25    1
    28     7    26    1
    29     8    27    1
    30    10    28    1
    31    15    29    1
    32    15    30    1
    33    17    31    1
    34    26    32    1
@<TRIPOS>MOLECULE
*****
 32 34 0 0 0
SMALL
GASTEIGER

@<TRIPOS>ATOM
      1 C5'         8.5610   -1.4860    3.2370 C.3   501  3D1501501    0.0730
      2 O5'         9.5709   -0.5801    3.6993 O.3   501  3D1501501   -0.3924
      3 C4'         8.9980   -2.3440    2.0460 C.3   501  3D1501501    0.1126
      4 O4'         7.8980   -3.1870    1.5730 O.3   501  3D1501501   -0.3457
      5 C3'         9.3860   -1.5720    0.7720 C.3   501  3D1501501    0.1135
      6 O3'        10.7180   -1.0980    0.8440 O.3   501  3D1501501   -0.3864
      7 C2'         9.2450   -2.6510   -0.3450 C.3   501  3D1501501    0.1285
      8 C1'         8.1610   -3.5760    0.1520 C.3   501  3D1501501    0.1667
      9 N1          3.6315   -1.2504    0.7029 N.ar  501  3D1501501   -0.2188
     10 C2          4.7267   -1.2618    1.4884 C.ar  501  3D1501501    0.1205
     11 N3          5.8717   -1.9067    1.2666 N.ar  501  3D1501501   -0.2159
     12 C4          5.8291   -2.6088    0.1181 C.ar  501  3D1501501    0.1674
     13 C5          4.7975   -2.6891   -0.7814 C.ar  501  3D1501501    0.1473
     14 C6          3.6511   -1.9029   -0.4972 C.ar  501  3D1501501    0.1472
     15 N6          2.6370   -1.7332   -1.3565 N.pl3 501  3D1501501   -0.3413
     16 N7          5.1047   -3.5227   -1.8454 N.ar  501  3D1501501   -0.2306
     17 C8          6.3217   -3.9482   -1.5819 C.ar  501  3D1501501    0.1004
     18 N9          6.8170   -3.4220   -0.4010 N.ar  501  3D1501501   -0.2855
     19 H5*1        8.2977   -2.1378    4.0437 H       1  A11         0.0584
     20 H5*2        7.7362   -0.8902    2.9057 H       1  A11         0.0584
     21 H5*        10.3395   -1.0838    4.0097 H       1  A11         0.2095
     22 H4*         9.8413   -2.8665    2.4469 H       1  A11         0.0647
     23 H3*         8.7814   -0.7045    0.6081 H       1  A11         0.0647
     24 H3*        11.3192   -1.8445    0.9929 H       1  A11         0.2100
     25 H2*         8.9601   -2.1994   -1.2723 H       1  A11         0.0665
     26 O2*        10.1645   -3.1663   -0.5291 O.3     1  A11        -0.3847
     27 H1*         8.5360   -4.5488   -0.0885 H       1  A11         0.0866
     28 H2          4.6726   -0.7097    2.3586 H       1  A11         0.1048
     29 H61         1.8660   -1.1755   -1.1041 H       1  A11         0.1438
     30 H62         2.6630   -2.1664   -2.2402 H       1  A11         0.1438
     31 H8          6.8468   -4.5995   -2.1862 H       1  A11         0.1030
     32 H2*        10.4644   -3.5945    0.2880 H       1  A11         0.2101
@<TRIPOS>BOND
     1    15    14    1
     2    14     9   ar
     3    14    13   ar
     4     9    10   ar
     5    13    16   ar
     6    13    12   ar
     7    16    17   ar
     8    10    11   ar
     9    12    11   ar
    10    12    18   ar
    11    17    18   ar
    12    18     8    1
    13     7     8    1
    14     7     5    1
    15     8     4    1
    16     5     6    1
    17     5     3    1
    18     4     3    1
    19     3     1    1
    20     2     1    1
    21     1    19    1
    22     1    20    1
    23     2    21    1
    24     3    22    1
    25     5    23    1
    26     6    24    1
    27     7    25    1
    28     7    26    1
    29     8    27    1
    30    10    28    1
    31    15    29    1
    32    15    30    1
    33    17    31    1
    34    26    32    1
