@<TRIPOS>MOLECULE
*****
 32 34 0 0 0
SMALL
GASTEIGER

@<TRIPOS>ATOM
      1 C5'         8.5610   -1.4860    3.2370 C.3   501  3D1501      0.0730
      2 O5'         7.5630   -0.5100    2.9120 O.3   501  3D1501     -0.3924
      3 C4'         8.9980   -2.3440    2.0460 C.3   501  3D1501      0.1126
      4 O4'         7.8980   -3.1870    1.5730 O.3   501  3D1501     -0.3457
      5 C3'         9.3860   -1.5720    0.7720 C.3   501  3D1501      0.1135
      6 O3'        10.7180   -1.0980    0.8440 O.3   501  3D1501     -0.3864
      7 C2'         9.2450   -2.6510   -0.3450 C.3   501  3D1501      0.1285
      8 C1'         8.1610   -3.5760    0.1520 C.3   501  3D1501      0.1667
      9 N1          3.9270   -6.0360   -1.3480 N.ar  501  3D1501     -0.2188
     10 C2          5.1260   -6.4970   -0.9400 C.ar  501  3D1501      0.1205
     11 N3          6.1840   -5.7760   -0.5700 N.ar  501  3D1501     -0.2159
     12 C4          5.9390   -4.4550   -0.6630 C.ar  501  3D1501      0.1674
     13 C5          4.7770   -3.8400   -1.0520 C.ar  501  3D1501      0.1473
     14 C6          3.6820   -4.6920   -1.3490 C.ar  501  3D1501      0.1472
     15 N6          2.4370   -4.2490   -1.5710 N.pl3 501  3D1501     -0.3413
     16 N7          4.8960   -2.4590   -1.0420 N.ar  501  3D1501     -0.2306
     17 C8          6.1340   -2.2440   -0.6510 C.ar  501  3D1501      0.1004
     18 N9          6.8170   -3.4220   -0.4010 N.ar  501  3D1501     -0.2855
     19 H5*1        9.4206   -0.9754    3.6183 H       1    A1        0.0584
     20 H5*2        8.1260   -2.1489    3.9555 H       1    A1        0.0584
     21 H5*         7.9202    0.1129    2.2599 H       1    A1        0.2095
     22 H4*         9.8413   -2.8665    2.4469 H       1    A1        0.0647
     23 H3*         8.7814   -0.7045    0.6081 H       1    A1        0.0647
     24 H3*        11.3192   -1.8445    0.9929 H       1    A1        0.2100
     25 H2*         8.9601   -2.1994   -1.2723 H       1    A1        0.0665
     26 O2*        10.1645   -3.1663   -0.5291 O.3     1    A1       -0.3847
     27 H1*         8.5360   -4.5488   -0.0885 H       1    A1        0.0866
     28 H2          5.2372   -7.5226   -0.9109 H       1    A1        0.1048
     29 H61         1.7158   -4.8880   -1.7730 H       1    A1        0.1438
     30 H62         2.2435   -3.2845   -1.5321 H       1    A1        0.1438
     31 H8          6.5482   -1.3050   -0.5431 H       1    A1        0.1030
     32 H2*        10.4644   -3.5945    0.2880 H       1    A1        0.2101
@<TRIPOS>BOND
     1    15    14    1
     2    14     9   ar
     3    14    13   ar
     4     9    10   ar
     5    13    16   ar
     6    13    12   ar
     7    16    17   ar
     8    10    11   ar
     9    12    11   ar
    10    12    18   ar
    11    17    18   ar
    12    18     8    1
    13     7     8    1
    14     7     5    1
    15     8     4    1
    16     5     6    1
    17     5     3    1
    18     4     3    1
    19     3     1    1
    20     2     1    1
    21     1    19    1
    22     1    20    1
    23     2    21    1
    24     3    22    1
    25     5    23    1
    26     6    24    1
    27     7    25    1
    28     7    26    1
    29     8    27    1
    30    10    28    1
    31    15    29    1
    32    15    30    1
    33    17    31    1
    34    26    32    1
